<connections>
	<connection from="237667614_8127267314_30237632" to="237667614_30237632_8127290529" />
	<connection from="237667614_8127267314_30237632" to="243716770_30237632_8127267300" />
	<connection from="450145193_30558433_8197555116" to="450145193_8197555116_269379907" />
	<connection from="450145193_30558433_8197555116" to="881433892_8197555116_8197555115" />
	<connection from="243716770_8127267315_30237632" to="237667614_30237632_8127290529" />
	<connection from="243716770_8127267315_30237632" to="243716770_30237632_8127267300" />
	<connection from="542169702_4472019526_1840720995" to="22725332_1840720995_1378894231" />
	<connection from="542169702_4472019526_1840720995" to="542169704_1840720995_1840721019" />
	<connection from="542990497_30237694_3434285993" to="665909461_3434285993_5249411001" />
	<connection from="542990497_30237694_3434285993" to="542990497_3434285993_30237694" />
	<connection from="244059994_1311619500_364811899" to="238324875_364811899_30237768" />
	<connection from="244059994_1311619500_364811899" to="238324867_364811899_430535694" />
	<connection from="238862112_269385954_30558429" to="238862112_30558429_4554368828" />
	<connection from="238862112_30558429_4554368828" to="542169703_4554368828_269381078" />
	<connection from="542169704_1840720995_1840721019" to="244059991_1840721019_1362900013" />
	<connection from="542169704_1840720995_1840721019" to="542169701_1840721019_269381314" />
	<connection from="173223709_30313252_269381939" to="26434305_269381939_289658891" />
	<connection from="868707436_8097353540_1589583514" to="145565054_1589583514_30248550" />
	<connection from="538722959_269381077_823781710" to="583046483_823781710_4472019526" />
	<connection from="24793591_6099715638_667387213" to="24793408_667387213_1840721009" />
	<connection from="116315067_1382873572_30558435" to="4776834_30558435_30558433" />
	<connection from="4752000_30313135_30313134" to="4752003_30313134_30313163" />
	<connection from="4752000_30313135_30313134" to="4752000_30313134_30313132" />
	<connection from="541430463_30237692_8530326066" to="541430463_8530326066_30237693" />
	<connection from="283778456_269379909_269379910" to="237521119_269379910_269382573" />
	<connection from="283778456_269379909_269379910" to="237521074_269379910_8529353196" />
	<connection from="541430463_412398661_8530326055" to="541430463_8530326055_8530326057" />
	<connection from="237667614_30237635_30237634" to="98002400_30237634_30237614" />
	<connection from="237667614_30237635_30237634" to="237667614_30237634_30237633" />
	<connection from="24793206_30558511_59850119" to="24793206_59850119_998592654" />
	<connection from="24793206_30558511_59850119" to="208606448_59850119_59850118" />
	<connection from="208606448_30558475_59850119" to="24793206_59850119_998592654" />
	<connection from="208606448_30558475_59850119" to="208606448_59850119_59850118" />
	<connection from="4744944_8121505590_30237610" to="4744944_30237610_30313113" />
	<connection from="4744944_30237610_30313113" to="237960948_30313113_4470657985" />
	<connection from="4744944_30237610_30313113" to="570380997_30313113_4470657984" />
	<connection from="918486004_30313144_30313136" to="918486004_30313136_7490465827" />
	<connection from="918486004_30313144_30313136" to="4752000_30313136_30313135" />
	<connection from="237667607_1382873617_1469158199" to="133484230_1469158199_269381077" />
	<connection from="237667614_30237633_8127267314" to="237667614_8127267314_30237632" />
	<connection from="4776847_30558477_30558439" to="4776847_30558439_30558475" />
	<connection from="4776847_30558477_30558439" to="4776834_30558439_30558435" />
	<connection from="397481042_1311619500_1311619340" to="544164277_1311619340_5260292356" />
	<connection from="237667620_30246712_30246711" to="237667612_30246711_30248550" />
	<connection from="237667620_30246712_30246711" to="584149723_30246711_5584069358" />
	<connection from="4752018_8530364014_8530326064" to="4752018_8530326064_30237692" />
	<connection from="237914516_1382873572_1382873523" to="237914516_1382873523_557187296" />
	<connection from="237914516_1382873572_1382873523" to="124184226_1382873523_1382873535" />
	<connection from="553586754_1382873680_30237628" to="553586753_30237628_30237627" />
	<connection from="553586754_1382873680_30237628" to="4745969_30237628_8121505591" />
	<connection from="192770131_692247933_2087204997" to="123269345_2087204997_1375272349" />
	<connection from="192770131_692247933_2087204997" to="192770131_2087204997_31285267" />
	<connection from="52514914_667395973_667395974" to="668964781_667395974_1840720993" />
	<connection from="52514914_667395973_667395974" to="173223708_667395974_1840721009" />
	<connection from="4776834_30558435_30558433" to="450145193_30558433_8197555116" />
	<connection from="4776834_30558435_30558433" to="4776834_30558433_30558429" />
	<connection from="86057932_8514915325_998592654" to="86057932_998592654_1645362844" />
	<connection from="86057932_8514915325_998592654" to="24793206_998592654_269383883" />
	<connection from="4752003_30313134_30313163" to="4752018_30313163_30313123" />
	<connection from="4752003_30313134_30313163" to="4752003_30313163_30313162" />
	<connection from="153268994_30313252_30313254" to="173223706_30313254_1479390501" />
	<connection from="153268994_30313252_30313254" to="153268994_30313254_30313256" />
	<connection from="238324867_364811899_430535694" to="536376975_430535694_269381314" />
	<connection from="862963816_8039245592_8033328937" to="862197870_8033328937_269383990" />
	<connection from="237515356_667387220_1889882329" to="237515356_1889882329_1375272376" />
	<connection from="237515356_667387220_1889882329" to="178640955_1889882329_1889882331" />
	<connection from="550615021_269381073_1840720982" to="538722960_1840720982_4554368828" />
	<connection from="295263584_442540269_364811897" to="536376968_364811897_442540270" />
	<connection from="4752000_30313132_8530326065" to="4752000_8530326065_30237693" />
	<connection from="237506962_7009820327_30248586" to="237506962_30248586_7009820327" />
	<connection from="238768629_269383243_269383881" to="151694534_269383881_1645362844" />
	<connection from="238768629_269383243_269383881" to="238768629_269383881_269383990" />
	<connection from="450369478_30313256_1479390232" to="145565065_1479390232_1479390512" />
	<connection from="450369478_30313256_1479390232" to="450369478_1479390232_30313256" />
	<connection from="709075301_667387223_667387213" to="24793408_667387213_1840721009" />
	<connection from="4752003_30313162_30313161" to="35465964_30313161_8530318477" />
	<connection from="4752003_30313162_30313161" to="4752003_30313161_1889932481" />
	<connection from="129169443_269379909_364829686" to="24793770_364829686_5261054021" />
	<connection from="295263585_1589583485_8127267299" to="295263585_8127267299_30237612" />
	<connection from="4746244_1297744704_5584069358" to="4746244_5584069358_1297744704" />
	<connection from="4746244_1297744704_5584069358" to="584149723_5584069358_30246711" />
	<connection from="4752003_30313163_30313162" to="4752025_30313162_30313181" />
	<connection from="4752003_30313163_30313162" to="4752003_30313162_30313161" />
	<connection from="4744966_30237633_30237770" to="237659855_30237770_364811897" />
	<connection from="145560650_269382534_1840720993" to="569435706_1840720993_269376915" />
	<connection from="145560650_269382534_1840720993" to="145560650_1840720993_269382534" />
	<connection from="43872042_8174151452_30558477" to="4776847_30558477_30558439" />
	<connection from="43872042_8174151452_30558477" to="43872042_30558477_1382873523" />
	<connection from="35163649_30248583_7490465823" to="35163649_7490465823_30237768" />
	<connection from="35163649_30248583_7490465823" to="35163649_7490465823_30248583" />
	<connection from="24793408_667387217_667387220" to="709075301_667387220_667387223" />
	<connection from="24793408_667387217_667387220" to="237515356_667387220_1889882329" />
	<connection from="145565048_951467903_2494769767" to="243716771_2494769767_1589583464" />
	<connection from="237506962_5249411001_7009820327" to="237506962_7009820327_30248586" />
	<connection from="237506962_5249411001_7009820327" to="237506962_7009820327_5249411001" />
	<connection from="98002400_442540270_30237634" to="98002400_30237634_30237614" />
	<connection from="98002400_442540270_30237634" to="237667614_30237634_30237633" />
	<connection from="4752000_8530326065_30237693" to="4752000_30237693_30313130" />
	<connection from="4752000_8530326065_30237693" to="541430463_30237693_7490465813" />
	<connection from="542781428_30237613_8127267285" to="542781428_8127267285_8127267265" />
	<connection from="4744944_30246777_8121505583" to="4744944_8121505583_8121505592" />
	<connection from="397481042_1311619340_1311619500" to="397481044_1311619500_5260292357" />
	<connection from="451607872_1362900013_1378894231" to="170079041_1378894231_442540269" />
	<connection from="327375750_269379908_364829686" to="450369479_364829686_1479390211" />
	<connection from="327375750_269379908_364829686" to="24793770_364829686_5261054021" />
	<connection from="327375750_269379908_364829686" to="129169443_364829686_269379909" />
	<connection from="208606448_5264616257_30558475" to="208606448_30558475_59850119" />
	<connection from="544243185_1469158191_5261054021" to="24793770_5261054021_364829686" />
	<connection from="544243185_1469158191_5261054021" to="544243185_5261054021_1469158191" />
	<connection from="544641229_269379907_5264616257" to="208606448_5264616257_30558475" />
	<connection from="450369479_364829686_1479390211" to="709075300_1479390211_269376045" />
	<connection from="450369479_364829686_1479390211" to="449606870_1479390211_269379910" />
	<connection from="35465964_30237690_30313179" to="35465964_30313179_30313161" />
	<connection from="541430463_30237690_8530326061" to="541430463_8530326061_30237691" />
	<connection from="237506962_7009820327_5249411001" to="665909461_5249411001_3434285993" />
	<connection from="237506962_7009820327_5249411001" to="237506962_5249411001_7009820327" />
	<connection from="237960947_30237612_8127267297" to="237960947_8127267297_8127267288" />
	<connection from="237795735_30237629_30237628" to="553586753_30237628_30237627" />
	<connection from="237795735_30237629_30237628" to="4745969_30237628_8121505591" />
	<connection from="916766791_1378073789_8514915325" to="86057932_8514915325_998592654" />
	<connection from="124184228_1297744704_1382873567" to="237549910_1382873567_5247919458" />
	<connection from="124184228_1297744704_1382873567" to="237549912_1382873567_364991353" />
	<connection from="4745969_8121505591_30246768" to="4744944_30246768_8121505590" />
	<connection from="4745969_8121505591_30246768" to="4745969_30246768_8121505588" />
	<connection from="237667614_30237634_30237633" to="237667614_30237633_8127267314" />
	<connection from="237667614_30237634_30237633" to="4744966_30237633_30237770" />
	<connection from="583046483_823781710_4472019526" to="542169702_4472019526_1840720995" />
	<connection from="583046483_823781710_4472019526" to="450280066_4472019526_1469158212" />
	<connection from="9412963_8127290531_30237630" to="237667608_30237630_8127290530" />
	<connection from="9412963_8127290531_30237630" to="237795735_30237630_8127290534" />
	<connection from="243716771_2494769767_1589583464" to="450145201_1589583464_4470657985" />
	<connection from="243716771_2494769767_1589583464" to="295263586_1589583464_30313113" />
	<connection from="450369491_30313256_1479390512" to="145565065_1479390512_1479390211" />
	<connection from="43872042_30558477_1382873523" to="237914516_1382873523_557187296" />
	<connection from="43872042_30558477_1382873523" to="124184226_1382873523_1382873535" />
	<connection from="237960945_30247089_2494769767" to="243716771_2494769767_1589583464" />
	<connection from="123655282_1378073778_8127179055" to="123655282_8127179055_269379907" />
	<connection from="35465964_8530326060_30237690" to="35465964_30237690_30313179" />
	<connection from="35465964_8530326060_30237690" to="541430463_30237690_8530326061" />
	<connection from="570380997_30313113_4470657984" to="9412963_4470657984_8127290531" />
	<connection from="450280066_4472019526_1469158212" to="145565059_1469158212_8097353540" />
	<connection from="4744966_30237613_8127267284" to="4744966_8127267284_30237633" />
	<connection from="553716786_5241929669_5241929970" to="145565065_5241929970_1479390232" />
	<connection from="553716786_5241929669_5241929970" to="542169699_5241929970_269381073" />
	<connection from="26434305_8530318478_30313142" to="918486004_30313142_30313143" />
	<connection from="910456420_269376045_6663108848" to="910456421_6663108848_6099715638" />
	<connection from="4746244_5584069358_1297744704" to="124184228_1297744704_1382873567" />
	<connection from="4746244_5584069358_1297744704" to="4746244_1297744704_5584069358" />
	<connection from="238862112_269379908_269385954" to="238862112_269385954_30558429" />
	<connection from="238862112_269379908_269385954" to="881433893_269385954_1378073778" />
	<connection from="918486004_30313143_8530318479" to="918486004_8530318479_30313144" />
	<connection from="124184226_1382873535_1382873523" to="237914516_1382873523_557187296" />
	<connection from="124184226_1382873535_1382873523" to="124184226_1382873523_1382873535" />
	<connection from="237549910_1382873567_5247919458" to="542841024_5247919458_1382873617" />
	<connection from="862197868_269383883_3191418776" to="601821914_3191418776_269379908" />
	<connection from="862197868_269383883_3191418776" to="449751440_3191418776_269382682" />
	<connection from="601821914_3191418776_269379908" to="238862112_269379908_269385954" />
	<connection from="4744944_8121505592_30246768" to="4744944_30246768_8121505590" />
	<connection from="4744944_8121505592_30246768" to="4745969_30246768_8121505588" />
	<connection from="541430463_30237694_442540300" to="536376979_442540300_364811890" />
	<connection from="541430463_30237694_442540300" to="450280363_442540300_1311619340" />
	<connection from="4752018_8530326064_30237692" to="4752018_30237692_30313182" />
	<connection from="4752018_8530326064_30237692" to="541430463_30237692_8530326066" />
	<connection from="918486004_30313139_8530318475" to="918486004_8530318475_6419709081" />
	<connection from="32326550_289658891_667395973" to="32326550_667395973_1174647432" />
	<connection from="32326550_289658891_667395973" to="52514914_667395973_667395974" />
	<connection from="4744972_30237873_6874436564" to="4744972_6874436564_30237866" />
	<connection from="544617968_5264394013_1362900013" to="244059991_1362900013_1840721019" />
	<connection from="542842571_30248584_30248585" to="542842571_30248585_30248584" />
	<connection from="542842571_30248584_30248585" to="542842571_30248585_5247936116" />
	<connection from="257568502_1840720990_5241929669" to="553716786_5241929669_5241929970" />
	<connection from="237549913_364991353_30558433" to="450145193_30558433_8197555116" />
	<connection from="237549913_364991353_30558433" to="4776834_30558433_30558429" />
	<connection from="133484230_1469158199_269381077" to="538722959_269381077_823781710" />
	<connection from="295263586_1589583464_30313113" to="237960948_30313113_4470657985" />
	<connection from="295263586_1589583464_30313113" to="570380997_30313113_4470657984" />
	<connection from="173223709_430537453_30313252" to="153268994_30313252_30313254" />
	<connection from="173223709_430537453_30313252" to="173223709_30313252_269381939" />
	<connection from="4745969_8121505588_8121505610" to="4745969_8121505610_30237588" />
	<connection from="4776834_30558439_30558435" to="4776834_30558435_30558433" />
	<connection from="4752018_8530284746_8530364014" to="4752018_8530364014_8530326064" />
	<connection from="4745960_1382873617_30246711" to="237667612_30246711_30248550" />
	<connection from="4745960_1382873617_30246711" to="584149723_30246711_5584069358" />
	<connection from="133484225_269381078_1382873721" to="251749485_1382873721_5249410997" />
	<connection from="4752025_8530326062_30237691" to="4752025_30237691_8530366317" />
	<connection from="4752025_8530326062_30237691" to="541430463_30237691_8530326063" />
	<connection from="35465964_8530318477_30313142" to="918486004_30313142_30313143" />
	<connection from="35163649_7490465823_30248583" to="35163649_30248583_30248582" />
	<connection from="35163649_7490465823_30248583" to="4752003_30248583_30313134" />
	<connection from="35163649_7490465823_30248583" to="35163649_30248583_7490465823" />
	<connection from="4746042_442540269_8127290517" to="4746042_8127290517_30247088" />
	<connection from="237960949_7009893326_30247089" to="237960949_30247089_30238023" />
	<connection from="237960949_7009893326_30247089" to="237960945_30247089_2494769767" />
	<connection from="918459858_30313132_30313182" to="4752018_30313182_30313163" />
	<connection from="918459858_30313132_30313182" to="918459858_30313182_30313181" />
	<connection from="542842571_30248585_5247936116" to="542990497_5247936116_7490465812" />
	<connection from="542842571_30248585_5247936116" to="542842571_5247936116_30248585" />
	<connection from="542169700_1479390501_5241929669" to="553716786_5241929669_5241929970" />
	<connection from="237960949_8127267295_7009893326" to="237960949_7009893326_30247089" />
	<connection from="553586756_30685341_8127290533" to="553586756_8127290533_30237630" />
	<connection from="4752000_30237693_30313130" to="4752000_30313130_8530364013" />
	<connection from="4752000_30237693_30313130" to="336385709_30313130_3434285993" />
	<connection from="542841016_8127267316_30247088" to="243716768_30247088_30237770" />
	<connection from="542841016_8127267316_30247088" to="243716770_30247088_8127267315" />
	<connection from="283778455_364829704_269382682" to="550732197_269382682_269379909" />
	<connection from="542990495_5249410997_364991353" to="542990494_364991353_5249410995" />
	<connection from="542990495_5249410997_364991353" to="237549913_364991353_30558433" />
	<connection from="145560650_269382534_269376045" to="145560650_269376045_269382534" />
	<connection from="145560650_269382534_269376045" to="910456420_269376045_6663108848" />
	<connection from="4752009_364811890_30248585" to="542842571_30248585_30248584" />
	<connection from="4752009_364811890_30248585" to="542842571_30248585_5247936116" />
	<connection from="542841033_5247922096_1382873680" to="553586754_1382873680_30237628" />
	<connection from="542841033_5247922096_1382873680" to="237795725_1382873680_1382873567" />
	<connection from="24793409_269376403_31285267" to="24793409_31285267_667387223" />
	<connection from="450145201_1589583464_4470657985" to="538724747_4470657985_1589583485" />
	<connection from="544243186_269381073_1469158191" to="544243185_1469158191_5261054021" />
	<connection from="244059991_1362900013_1840721019" to="244059991_1840721019_1362900013" />
	<connection from="244059991_1362900013_1840721019" to="542169701_1840721019_269381314" />
	<connection from="24793409_31285267_667387223" to="709075301_667387223_667387213" />
	<connection from="553586755_1589583507_8127290527" to="553586755_8127290527_30685341" />
	<connection from="237795735_30237630_8127290534" to="237795735_8127290534_30237629" />
	<connection from="237960950_30248550_1589583507" to="553586755_1589583507_8127290527" />
	<connection from="612051632_951467903_5794183354" to="612051632_5794183354_951467903" />
	<connection from="4744944_8121505583_8121505592" to="4744944_8121505592_30246768" />
	<connection from="918486004_7490465827_30248580" to="542169706_30248580_430535694" />
	<connection from="918486004_7490465827_30248580" to="542990496_30248580_5249410999" />
	<connection from="665909461_5249411001_3434285993" to="665909461_3434285993_5249411001" />
	<connection from="665909461_5249411001_3434285993" to="542990497_3434285993_30237694" />
	<connection from="542990497_5247936116_7490465812" to="542990497_7490465812_30237694" />
	<connection from="542990497_5247936116_7490465812" to="542990497_7490465812_5247936116" />
	<connection from="449751444_269382573_8529353197" to="449751444_8529353197_269376402" />
	<connection from="612051632_5794183354_951467903" to="612051632_951467903_5794183354" />
	<connection from="612051632_5794183354_951467903" to="145565048_951467903_2494769767" />
	<connection from="24793131_269376044_269376045" to="145560650_269376045_269382534" />
	<connection from="24793131_269376044_269376045" to="910456420_269376045_6663108848" />
	<connection from="237914516_5249410995_1382873572" to="116315067_1382873572_30558435" />
	<connection from="237914516_5249410995_1382873572" to="237914516_1382873572_1382873523" />
	<connection from="4752018_30313182_30313163" to="4752018_30313163_30313123" />
	<connection from="4752018_30313182_30313163" to="4752003_30313163_30313162" />
	<connection from="544164278_5260292357_5264394013" to="544617968_5264394013_1362900013" />
	<connection from="544164278_5260292357_5264394013" to="544164278_5264394013_5260292357" />
	<connection from="257568502_269381314_1840720990" to="257568502_1840720990_5241929669" />
	<connection from="257568502_269381314_1840720990" to="666707719_1840720990_430537453" />
	<connection from="22725332_1840720995_1378894231" to="170079041_1378894231_442540269" />
	<connection from="237960947_8127267288_30237613" to="4744966_30237613_8127267284" />
	<connection from="237960947_8127267288_30237613" to="542781428_30237613_8127267285" />
	<connection from="35163649_30248582_5249410999" to="542990496_5249410999_30248580" />
	<connection from="35163649_30248582_5249410999" to="35163649_5249410999_30248582" />
	<connection from="257568505_5260292356_1362899971" to="237659844_1362899971_1311619488" />
	<connection from="916766792_8514915326_998637904" to="237549914_998637904_269379908" />
	<connection from="450280065_4470657986_4470657984" to="9412963_4470657984_8127290531" />
	<connection from="550732197_269379909_269382682" to="550732197_269382682_269379909" />
	<connection from="550732197_269379909_269382682" to="129169446_269382682_269382573" />
	<connection from="550732197_269379909_269382682" to="283778455_269382682_364829704" />
	<connection from="4752025_30237691_8530366317" to="4752025_8530366317_4832661197" />
	<connection from="237549912_1382873567_364991353" to="542990494_364991353_5249410995" />
	<connection from="237549912_1382873567_364991353" to="237549913_364991353_30558433" />
	<connection from="4752025_30313181_8530326062" to="4752025_8530326062_30237691" />
	<connection from="542990497_3434285993_30237694" to="542990497_30237694_3434285993" />
	<connection from="542990497_3434285993_30237694" to="541430463_30237694_442540300" />
	<connection from="542990497_3434285993_30237694" to="542990497_30237694_7490465812" />
	<connection from="237659844_1362899971_1311619488" to="237659844_1311619488_1362899971" />
	<connection from="129169443_364829686_269379909" to="550732197_269379909_269382682" />
	<connection from="129169443_364829686_269379909" to="283778456_269379909_269379910" />
	<connection from="129169443_364829686_269379909" to="129169443_269379909_364829686" />
	<connection from="541430463_8530326066_30237693" to="4752000_30237693_30313130" />
	<connection from="541430463_8530326066_30237693" to="541430463_30237693_7490465813" />
	<connection from="257568505_1362899971_5260292356" to="257568505_5260292356_1362899971" />
	<connection from="257568505_1362899971_5260292356" to="544164277_5260292356_1311619340" />
	<connection from="237659855_30237770_364811897" to="536376968_364811897_442540270" />
	<connection from="237659855_30237770_364811897" to="536376972_364811897_1311619500" />
	<connection from="192770131_2087204997_31285267" to="24793409_31285267_667387223" />
	<connection from="881433893_269385954_1378073778" to="881433893_1378073778_269385954" />
	<connection from="881433893_269385954_1378073778" to="123655282_1378073778_8127179055" />
	<connection from="237667608_30237630_8127290530" to="237667608_8127290530_30246712" />
	<connection from="4752025_4832661197_8529175050" to="4752025_8529175050_678297076" />
	<connection from="237515356_1889882329_1375272376" to="123269345_1375272376_2087204997" />
	<connection from="237515356_1889882329_1375272376" to="237515356_1375272376_31285435" />
	<connection from="4751999_30313123_30313122" to="4751999_30313122_30313123" />
	<connection from="4751999_30313123_30313122" to="4752025_30313122_30313162" />
	<connection from="4752018_30237692_30313182" to="4752018_30313182_30313163" />
	<connection from="4752018_30237692_30313182" to="918459858_30313182_30313181" />
	<connection from="123269345_1375272376_2087204997" to="123269345_2087204997_1375272349" />
	<connection from="123269345_1375272376_2087204997" to="192770131_2087204997_31285267" />
	<connection from="542781427_8127267289_30237613" to="4744966_30237613_8127267284" />
	<connection from="542781427_8127267289_30237613" to="542781428_30237613_8127267285" />
	<connection from="541430463_8530326063_30237692" to="4752018_30237692_30313182" />
	<connection from="541430463_8530326063_30237692" to="541430463_30237692_8530326066" />
	<connection from="244059991_1840721019_1362900013" to="544617968_1362900013_5264394013" />
	<connection from="237667608_8127290530_30246712" to="237667620_30246712_30246711" />
	<connection from="237667608_8127290530_30246712" to="450145189_30246712_1297744704" />
	<connection from="542842571_30248585_30248584" to="918459857_30248584_30313132" />
	<connection from="542842571_30248585_30248584" to="542842571_30248584_30248585" />
	<connection from="542842571_30248585_30248584" to="237506961_30248584_30237768" />
	<connection from="538722960_1840720982_4554368828" to="542169703_4554368828_269381078" />
	<connection from="237960945_7009893327_30247089" to="237960949_30247089_30238023" />
	<connection from="237960945_7009893327_30247089" to="237960945_30247089_2494769767" />
	<connection from="237960944_30248550_5247922095" to="542841016_5247922095_8127267316" />
	<connection from="541430463_8530326059_30237690" to="35465964_30237690_30313179" />
	<connection from="541430463_8530326059_30237690" to="541430463_30237690_8530326061" />
	<connection from="237960945_30237772_7009893327" to="237960945_7009893327_30247089" />
	<connection from="4776834_30558433_30558429" to="238862112_30558429_4554368828" />
	<connection from="237667614_30237632_8127290529" to="237667614_8127290529_30685341" />
	<connection from="153268994_30313254_30313256" to="450369491_30313256_1479390512" />
	<connection from="153268994_30313254_30313256" to="450369478_30313256_1479390232" />
	<connection from="153268994_30313254_30313256" to="24793818_30313256_269382534" />
	<connection from="569435706_1840720993_269376915" to="569435706_269376915_269381939" />
	<connection from="569435706_1840720993_269376915" to="173223706_269376915_30313254" />
	<connection from="35163649_30248582_30248583" to="35163649_30248583_30248582" />
	<connection from="35163649_30248582_30248583" to="4752003_30248583_30313134" />
	<connection from="35163649_30248582_30248583" to="35163649_30248583_7490465823" />
	<connection from="145565058_5481419769_4470657986" to="450145203_4470657986_4470657985" />
	<connection from="145565058_5481419769_4470657986" to="450280065_4470657986_4470657984" />
	<connection from="145560650_269376045_269382534" to="24793818_269382534_30313256" />
	<connection from="145560650_269376045_269382534" to="145560650_269382534_1840720993" />
	<connection from="145560650_269376045_269382534" to="145560650_269382534_269376045" />
	<connection from="542990497_30237694_7490465812" to="542990497_7490465812_30237694" />
	<connection from="542990497_30237694_7490465812" to="542990497_7490465812_5247936116" />
	<connection from="35465964_30313161_8530318477" to="35465964_8530318477_30313142" />
	<connection from="145565054_1589583514_30248550" to="237960944_30248550_5247922095" />
	<connection from="145565054_1589583514_30248550" to="237960950_30248550_1589583507" />
	<connection from="449606870_1479390211_269379910" to="237521119_269379910_269382573" />
	<connection from="449606870_1479390211_269379910" to="237521074_269379910_8529353196" />
	<connection from="123655282_8127179055_269379907" to="544641229_269379907_5264616257" />
	<connection from="123655282_8127179055_269379907" to="450145579_269379907_998637904" />
	<connection from="450145193_8197555116_269379907" to="544641229_269379907_5264616257" />
	<connection from="450145193_8197555116_269379907" to="450145579_269379907_998637904" />
	<connection from="542990496_5249410999_30248580" to="542169706_30248580_430535694" />
	<connection from="542990496_5249410999_30248580" to="542990496_30248580_5249410999" />
	<connection from="86057932_998592654_1645362844" to="86057932_1645362844_998592677" />
	<connection from="536376975_430535694_269381314" to="257568502_269381314_1840720990" />
	<connection from="173223708_1840721009_667395974" to="668964781_667395974_1840720993" />
	<connection from="173223708_1840721009_667395974" to="173223708_667395974_1840721009" />
	<connection from="237549914_998637904_269379908" to="238862112_269379908_269385954" />
	<connection from="237549914_998637904_269379908" to="327375750_269379908_364829686" />
	<connection from="237549914_998637904_269379908" to="450145580_269379908_269379909" />
	<connection from="4751999_30313123_30313135" to="4752000_30313135_30313134" />
	<connection from="4751999_30313123_30313135" to="4751999_30313135_30248582" />
	<connection from="4751999_30313123_30313135" to="4751999_30313135_30313123" />
	<connection from="650072280_6099715638_8529389962" to="650072280_8529389962_6099715637" />
	<connection from="254329359_269383989_8039245592" to="862963816_8039245592_8033328937" />
	<connection from="24793206_59850119_998592654" to="86057932_998592654_1645362844" />