<?xml version="1.0" ?>
<!-- Generated by MOSAIC scenario-convert 21.0 -->
<routes>
	<vType id="default" length="7.5" maxSpeed="50" minGap="2.0" carFollowModel="Krauss" accel="0.80" decel="4.5" sigma="0.5" tau="1"/>
	<route id="1" edges="283778455_269382682_364829704 283778455_364829704_269382682 550732197_269382682_269379909 129169443_269379909_364829686 24793770_364829686_5261054021 544243185_5261054021_1469158191 544243187_1469158191_1840720982 538722960_1840720982_4554368828 542169703_4554368828_269381078 538551233_269381078_269381077 538722959_269381077_823781710 583046483_823781710_4472019526 542169702_4472019526_1840720995 22725332_1840720995_1378894231 170079041_1378894231_442540269 4746042_442540269_8127290517 4746042_8127290517_30247088 243716768_30247088_30237770 237659855_30237770_364811897 536376972_364811897_1311619500 244059994_1311619500_364811899 238324875_364811899_30237768 237506961_30237768_30248584 542842571_30248584_30248585 542842571_30248585_5247936116 542990497_5247936116_7490465812 542990497_7490465812_30237694 541430463_30237694_442540300 450280363_442540300_1311619340" />
	<route id="2" edges="257568505_1362899971_5260292356 544164277_5260292356_1311619340 397481042_1311619340_1311619500 397481044_1311619500_5260292357 544164278_5260292357_5264394013 544617968_5264394013_1362900013 244059991_1362900013_1840721019 542169701_1840721019_269381314 257568502_269381314_1840720990 257568502_1840720990_5241929669 553716786_5241929669_5241929970 145565065_5241929970_1479390232 145565065_1479390232_1479390512 145565065_1479390512_1479390211 449606870_1479390211_269379910 237521119_269379910_269382573" />
	<route id="3" edges="243716771_2494769767_1589583464 295263586_1589583464_30313113 570380997_30313113_4470657984 9412963_4470657984_8127290531 9412963_8127290531_30237630 237667608_30237630_8127290530 237667608_8127290530_30246712 450145189_30246712_1297744704 124184228_1297744704_1382873567 237549912_1382873567_364991353 237549913_364991353_30558433 450145193_30558433_8197555116 450145193_8197555116_269379907 450145579_269379907_998637904 237549914_998637904_269379908 450145580_269379908_269379909 283778456_269379909_269379910 237521074_269379910_8529353196" />
	<route id="4" edges="24793206_30558511_59850119 24793206_59850119_998592654 24793206_998592654_269383883 862197868_269383883_3191418776 601821914_3191418776_269379908 238862112_269379908_269385954 881433893_269385954_1378073778 123655282_1378073778_8127179055 123655282_8127179055_269379907 450145579_269379907_998637904 237549914_998637904_269379908 450145580_269379908_269379909 283778456_269379909_269379910 237521074_269379910_8529353196 237521074_8529353196_269376402" />
	<route id="5" edges="569435706_269376915_269381939 26434305_269381939_289658891 26434305_289658891_8530318478 26434305_8530318478_30313142 918486004_30313142_30313143 918486004_30313143_8530318479 918486004_8530318479_30313144 153268994_30313144_30313252 153268994_30313252_30313254 173223706_30313254_1479390501 542169700_1479390501_5241929669 553716786_5241929669_5241929970 542169699_5241929970_269381073 550615021_269381073_1840720982 538722960_1840720982_4554368828 542169703_4554368828_269381078 538551233_269381078_269381077 538722959_269381077_823781710 583046483_823781710_4472019526 450280066_4472019526_1469158212 145565059_1469158212_8097353540 868707436_8097353540_1589583514 145565054_1589583514_30248550 237960950_30248550_1589583507 553586755_1589583507_8127290527 553586755_8127290527_30685341 570088936_30685341_5481419769 145565058_5481419769_4470657986" />
	<route id="6" edges="257568505_1362899971_5260292356 544164277_5260292356_1311619340 397481042_1311619340_1311619500 397481044_1311619500_5260292357 544164278_5260292357_5264394013 544617968_5264394013_1362900013 244059991_1362900013_1840721019 542169701_1840721019_269381314 257568502_269381314_1840720990 666707719_1840720990_430537453 173223709_430537453_30313252 173223709_30313252_269381939" />
</routes>