<nodes>
	<node id="1174647432" x="428098.94" y="4583129.24" z="0.00" type="priority" />
	<node id="1297744704" x="428461.22" y="4582449.46" z="0.00" type="priority" />
	<node id="1311619340" x="428908.94" y="4582848.72" z="0.00" type="traffic_light" />
	<node id="1311619488" x="429335.99" y="4582987.81" z="0.00" type="traffic_light" />
	<node id="1311619500" x="428766.06" y="4582802.15" z="0.00" type="traffic_light" />
	<node id="1362899971" x="429048.87" y="4582893.85" z="0.00" type="traffic_light" />
	<node id="1362900013" x="428575.13" y="4582740.42" z="0.00" type="traffic_light" />
	<node id="1375272349" x="427663.01" y="4582934.79" z="0.00" type="priority" />
	<node id="1375272376" x="427879.68" y="4583003.00" z="0.00" type="priority" />
	<node id="1378073778" x="428213.36" y="4582541.32" z="0.00" type="priority" />
	<node id="1378073789" x="428052.41" y="4582420.75" z="0.00" type="priority" />
	<node id="1378894231" x="428587.54" y="4582726.50" z="0.00" type="traffic_light" />
	<node id="1382873523" x="428350.46" y="4582268.18" z="0.00" type="priority" />
	<node id="1382873535" x="428381.83" y="4582261.49" z="0.00" type="priority" />
	<node id="1382873567" x="428420.72" y="4582457.59" z="0.00" type="traffic_light" />
	<node id="1382873572" x="428361.62" y="4582322.33" z="0.00" type="priority" />
	<node id="1382873617" x="428442.66" y="4582551.59" z="0.00" type="priority" />
	<node id="1382873680" x="428408.11" y="4582395.19" z="0.00" type="priority" />
	<node id="1382873721" x="428442.23" y="4582648.97" z="0.00" type="priority" />
	<node id="1469158191" x="428417.60" y="4582684.46" z="0.00" type="priority" />
	<node id="1469158199" x="428475.79" y="4582655.22" z="0.00" type="priority" />
	<node id="1469158212" x="428516.40" y="4582670.67" z="0.00" type="priority" />
	<node id="1479390211" x="428037.43" y="4582601.32" z="0.00" type="traffic_light" />
	<node id="1479390232" x="428258.05" y="4582672.75" z="0.00" type="priority" />
	<node id="1479390501" x="428415.71" y="4582735.17" z="0.00" type="priority" />
	<node id="1479390512" x="428227.83" y="4582663.48" z="0.00" type="priority" />
	<node id="1496412810" x="428148.04" y="4583177.16" z="0.00" type="priority" />
	<node id="1589583429" x="429167.83" y="4582011.43" z="0.00" type="traffic_light" />
	<node id="1589583464" x="428808.00" y="4582375.82" z="0.00" type="priority" />
	<node id="1589583485" x="428807.76" y="4582405.70" z="0.00" type="priority" />
	<node id="1589583507" x="428615.55" y="4582566.75" z="0.00" type="priority" />
	<node id="1589583514" x="428587.00" y="4582597.08" z="0.00" type="priority" />
	<node id="1645362844" x="427861.52" y="4582282.44" z="0.00" type="priority" />
	<node id="1812294093" x="429292.48" y="4582958.71" z="0.00" type="priority" />
	<node id="1840720982" x="428446.72" y="4582682.59" z="0.00" type="traffic_light" />
	<node id="1840720990" x="428473.86" y="4582749.15" z="0.00" type="priority" />
	<node id="1840720993" x="428205.62" y="4582814.83" z="0.00" type="priority" />
	<node id="1840720995" x="428517.15" y="4582692.12" z="0.00" type="priority" />
	<node id="1840721007" x="427450.08" y="4582408.50" z="0.00" type="traffic_light" />
	<node id="1840721009" x="427974.64" y="4582908.17" z="0.00" type="priority" />
	<node id="1840721019" x="428518.21" y="4582721.77" z="0.00" type="traffic_light" />
	<node id="1889882329" x="427894.76" y="4582976.52" z="0.00" type="priority" />
	<node id="1889882331" x="427891.47" y="4583115.49" z="0.00" type="priority" />
	<node id="1889932481" x="428193.85" y="4583299.72" z="0.00" type="traffic_light" />
	<node id="2087204997" x="427788.36" y="4582973.77" z="0.00" type="priority" />
	<node id="2494769767" x="428888.09" y="4582296.32" z="0.00" type="traffic_light" />
	<node id="269376044" x="427757.58" y="4582662.54" z="0.00" type="priority" />
	<node id="269376045" x="427991.48" y="4582742.12" z="0.00" type="traffic_light" />
	<node id="269376402" x="427802.25" y="4582588.69" z="0.00" type="priority" />
	<node id="269376403" x="427702.96" y="4582835.39" z="0.00" type="traffic_light" />
	<node id="269376915" x="428263.29" y="4582834.40" z="0.00" type="priority" />
	<node id="269379907" x="428210.75" y="4582502.71" z="0.00" type="traffic_light" />
	<node id="269379908" x="428053.86" y="4582537.21" z="0.00" type="traffic_light" />
	<node id="269379909" x="428001.70" y="4582547.44" z="0.00" type="traffic_light" />
	<node id="269379910" x="427924.52" y="4582562.73" z="0.00" type="traffic_light" />
	<node id="269381073" x="428438.21" y="4582703.82" z="0.00" type="priority" />
	<node id="269381077" x="428485.63" y="4582668.01" z="0.00" type="traffic_light" />
	<node id="269381078" x="428453.56" y="4582676.63" z="0.00" type="priority" />
	<node id="269381314" x="428509.87" y="4582736.29" z="0.00" type="priority" />
	<node id="269381939" x="428283.09" y="4582865.32" z="0.00" type="priority" />
	<node id="269382534" x="428130.10" y="4582790.70" z="0.00" type="priority" />
	<node id="269382573" x="427834.78" y="4582534.36" z="0.00" type="traffic_light" />
	<node id="269382682" x="427858.07" y="4582500.80" z="0.00" type="traffic_light" />
	<node id="269383243" x="427628.23" y="4582160.67" z="0.00" type="priority" />
	<node id="269383881" x="427841.72" y="4582311.86" z="0.00" type="priority" />
	<node id="269383883" x="427944.89" y="4582391.28" z="0.00" type="traffic_light" />
	<node id="269383989" x="427826.66" y="4582463.09" z="0.00" type="priority" />
	<node id="269383990" x="427904.50" y="4582361.75" z="0.00" type="priority" />
	<node id="269384878" x="427491.66" y="4582353.27" z="0.00" type="traffic_light" />
	<node id="269385954" x="428197.08" y="4582584.14" z="0.00" type="priority" />
	<node id="289658891" x="428266.81" y="4582931.57" z="0.00" type="priority" />
	<node id="2917908492" x="428361.59" y="4582156.23" z="0.00" type="priority" />
	<node id="30237588" x="428693.52" y="4582107.87" z="0.00" type="priority" />
	<node id="30237610" x="428698.04" y="4582295.54" z="0.00" type="traffic_light" />
	<node id="30237612" x="428888.78" y="4582483.37" z="0.00" type="priority" />
	<node id="30237613" x="428986.87" y="4582579.75" z="0.00" type="priority" />
	<node id="30237614" x="429082.39" y="4582671.11" z="0.00" type="traffic_light" />
	<node id="30237615" x="429176.71" y="4582762.03" z="0.00" type="traffic_light" />
	<node id="30237627" x="428414.21" y="4582206.10" z="0.00" type="traffic_light" />
	<node id="30237628" x="428506.97" y="4582298.62" z="0.00" type="traffic_light" />
	<node id="30237629" x="428603.61" y="4582390.53" z="0.00" type="priority" />
	<node id="30237630" x="428625.10" y="4582416.67" z="0.00" type="priority" />
	<node id="30237632" x="428793.91" y="4582581.40" z="0.00" type="priority" />
	<node id="30237633" x="428890.17" y="4582676.63" z="0.00" type="traffic_light" />
	<node id="30237634" x="428985.24" y="4582771.00" z="0.00" type="traffic_light" />
	<node id="30237635" x="429078.17" y="4582863.13" z="0.00" type="traffic_light" />
	<node id="30237637" x="429059.15" y="4582883.08" z="0.00" type="traffic_light" />
	<node id="30237690" x="428545.70" y="4583223.27" z="0.00" type="priority" />
	<node id="30237691" x="428604.59" y="4583161.64" z="0.00" type="priority" />
	<node id="30237692" x="428650.29" y="4583112.05" z="0.00" type="priority" />
	<node id="30237693" x="428695.81" y="4583065.01" z="0.00" type="priority" />
	<node id="30237694" x="428782.43" y="4582975.45" z="0.00" type="priority" />
	<node id="30237696" x="429173.93" y="4582579.54" z="0.00" type="traffic_light" />
	<node id="30237768" x="428679.47" y="4582893.33" z="0.00" type="traffic_light" />
	<node id="30237770" x="428797.33" y="4582769.64" z="0.00" type="priority" />
	<node id="30237772" x="429078.16" y="4582486.37" z="0.00" type="priority" />
	<node id="30237862" x="429098.19" y="4582478.96" z="0.00" type="traffic_light" />
	<node id="30237866" x="429181.70" y="4582410.97" z="0.00" type="traffic_light" />
	<node id="30237873" x="429271.05" y="4582296.35" z="0.00" type="traffic_light" />
	<node id="30238023" x="429171.76" y="4582199.88" z="0.00" type="priority" />
	<node id="30246711" x="428503.68" y="4582493.59" z="0.00" type="priority" />
	<node id="30246712" x="428569.89" y="4582427.04" z="0.00" type="priority" />
	<node id="30246768" x="428600.20" y="4582199.89" z="0.00" type="priority" />
	<node id="30246777" x="428507.24" y="4582110.89" z="0.00" type="priority" />
	<node id="30247088" x="428701.17" y="4582677.24" z="0.00" type="priority" />
	<node id="30247089" x="428980.76" y="4582391.22" z="0.00" type="priority" />
	<node id="30247411" x="428862.68" y="4583536.61" z="0.00" type="priority" />
	<node id="30248550" x="428601.04" y="4582582.34" z="0.00" type="traffic_light" />
	<node id="30248580" x="428546.48" y="4582770.56" z="0.00" type="priority" />
	<node id="30248582" x="428584.85" y="4582810.58" z="0.00" type="priority" />
	<node id="30248583" x="428621.54" y="4582846.27" z="0.00" type="priority" />
	<node id="30248584" x="428702.31" y="4582910.76" z="0.00" type="traffic_light" />
	<node id="30248585" x="428733.90" y="4582935.83" z="0.00" type="priority" />
	<node id="30248586" x="428886.98" y="4583060.36" z="0.00" type="priority" />
	<node id="30313113" x="428784.91" y="4582381.04" z="0.00" type="traffic_light" />
	<node id="30313122" x="428402.80" y="4583003.14" z="0.00" type="priority" />
	<node id="30313123" x="428447.11" y="4582955.74" z="0.00" type="priority" />
	<node id="30313125" x="428966.72" y="4583266.75" z="0.00" type="priority" />
	<node id="30313130" x="428757.20" y="4583111.60" z="0.00" type="priority" />
	<node id="30313132" x="428616.04" y="4583003.39" z="0.00" type="priority" />
	<node id="30313134" x="428534.85" y="4582938.36" z="0.00" type="priority" />
	<node id="30313135" x="428491.59" y="4582907.27" z="0.00" type="priority" />
	<node id="30313136" x="428448.82" y="4582872.93" z="0.00" type="priority" />
	<node id="30313139" x="428162.14" y="4583209.19" z="0.00" type="traffic_light" />
	<node id="30313142" x="428319.59" y="4583007.25" z="0.00" type="priority" />
	<node id="30313143" x="428360.60" y="4582967.85" z="0.00" type="priority" />
	<node id="30313144" x="428402.17" y="4582921.39" z="0.00" type="priority" />
	<node id="30313161" x="428398.58" y="4583082.76" z="0.00" type="priority" />
	<node id="30313162" x="428442.62" y="4583036.09" z="0.00" type="priority" />
	<node id="30313163" x="428488.37" y="4582987.62" z="0.00" type="priority" />
	<node id="30313179" x="428475.48" y="4583154.60" z="0.00" type="traffic_light" />
	<node id="30313181" x="428525.76" y="4583099.27" z="0.00" type="priority" />
	<node id="30313182" x="428571.01" y="4583052.57" z="0.00" type="traffic_light" />
	<node id="30313252" x="428337.21" y="4582830.13" z="0.00" type="priority" />
	<node id="30313254" x="428318.35" y="4582802.49" z="0.00" type="priority" />
	<node id="30313256" x="428240.50" y="4582689.20" z="0.00" type="priority" />
	<node id="30558429" x="428335.56" y="4582630.14" z="0.00" type="priority" />
	<node id="30558433" x="428295.15" y="4582484.41" z="0.00" type="traffic_light" />
	<node id="30558435" x="428266.43" y="4582342.48" z="0.00" type="priority" />
	<node id="30558439" x="428242.09" y="4582232.42" z="0.00" type="priority" />
	<node id="30558475" x="428084.34" y="4582362.41" z="0.00" type="traffic_light" />
	<node id="30558477" x="428280.82" y="4582200.36" z="0.00" type="priority" />
	<node id="30558511" x="428072.39" y="4582210.67" z="0.00" type="priority" />
	<node id="30685341" x="428696.94" y="4582485.33" z="0.00" type="priority" />
	<node id="31285267" x="427823.58" y="4582871.90" z="0.00" type="priority" />
	<node id="31285435" x="427813.75" y="4583115.85" z="0.00" type="traffic_light" />
	<node id="3191418776" x="427875.99" y="4582478.57" z="0.00" type="traffic_light" />
	<node id="3434285993" x="428833.34" y="4583016.66" z="0.00" type="priority" />
	<node id="359104407" x="429038.32" y="4582904.91" z="0.00" type="traffic_light" />
	<node id="364811890" x="428828.95" y="4582837.82" z="0.00" type="priority" />
	<node id="364811897" x="428778.29" y="4582791.25" z="0.00" type="traffic_light" />
	<node id="364811899" x="428754.86" y="4582812.57" z="0.00" type="traffic_light" />
	<node id="364829686" x="428048.46" y="4582563.33" z="0.00" type="priority" />
	<node id="364829704" x="427474.38" y="4582375.51" z="0.00" type="traffic_light" />
	<node id="364991353" x="428390.89" y="4582463.68" z="0.00" type="traffic_light" />
	<node id="412398661" x="428377.57" y="4583391.68" z="0.00" type="traffic_light" />
	<node id="430535694" x="428565.01" y="4582751.78" z="0.00" type="traffic_light" />
	<node id="430537453" x="428447.87" y="4582752.44" z="0.00" type="priority" />
	<node id="442540269" x="428636.72" y="4582745.37" z="0.00" type="priority" />
	<node id="442540270" x="428920.31" y="4582837.76" z="0.00" type="traffic_light" />
	<node id="442540300" x="428898.40" y="4582860.05" z="0.00" type="traffic_light" />
	<node id="4470657984" x="428771.47" y="4582384.56" z="0.00" type="priority" />
	<node id="4470657985" x="428804.74" y="4582402.43" z="0.00" type="priority" />
	<node id="4470657986" x="428776.57" y="4582402.91" z="0.00" type="priority" />
	<node id="4472019526" x="428508.88" y="4582679.66" z="0.00" type="priority" />
	<node id="4554368828" x="428450.11" y="4582679.43" z="0.00" type="priority" />
	<node id="4832661197" x="428951.72" y="4583441.63" z="0.00" type="traffic_light" />
	<node id="4897232218" x="429203.59" y="4582958.96" z="0.00" type="priority" />
	<node id="5241929669" x="428440.75" y="4582723.18" z="0.00" type="traffic_light" />
	<node id="5241929970" x="428440.13" y="4582721.68" z="0.00" type="priority" />
	<node id="5247919458" x="428434.95" y="4582513.36" z="0.00" type="priority" />
	<node id="5247922095" x="428651.33" y="4582630.27" z="0.00" type="priority" />
	<node id="5247922096" x="428392.29" y="4582314.74" z="0.00" type="priority" />
	<node id="5247936116" x="428760.35" y="4582957.36" z="0.00" type="priority" />
	<node id="5249410995" x="428367.46" y="4582350.52" z="0.00" type="priority" />
	<node id="5249410997" x="428420.59" y="4582584.00" z="0.00" type="priority" />
	<node id="5249410999" x="428558.24" y="4582781.09" z="0.00" type="traffic_light" />
	<node id="5249411001" x="428838.70" y="4583021.20" z="0.00" type="priority" />
	<node id="5260292356" x="428978.31" y="4582870.17" z="0.00" type="priority" />
	<node id="5260292357" x="428627.77" y="4582757.42" z="0.00" type="priority" />
	<node id="5261054021" x="428228.89" y="4582622.10" z="0.00" type="priority" />
	<node id="5264394013" x="428599.42" y="4582748.21" z="0.00" type="priority" />
	<node id="5264616257" x="428157.46" y="4582415.87" z="0.00" type="priority" />
	<node id="5481419769" x="428738.76" y="4582441.91" z="0.00" type="priority" />
	<node id="557187296" x="428327.36" y="4582143.11" z="0.00" type="priority" />
	<node id="5584069358" x="428480.21" y="4582470.05" z="0.00" type="priority" />
	<node id="5794183354" x="429063.16" y="4582279.83" z="0.00" type="priority" />
	<node id="59850118" x="427908.51" y="4582221.52" z="0.00" type="traffic_light" />
	<node id="59850119" x="428006.51" y="4582302.75" z="0.00" type="traffic_light" />
	<node id="6099715637" x="427755.08" y="4582671.27" z="0.00" type="priority" />
	<node id="6099715638" x="427989.45" y="4582750.17" z="0.00" type="priority" />
	<node id="6419709081" x="428318.17" y="4583009.00" z="0.00" type="traffic_light" />
	<node id="6663108848" x="427990.10" y="4582747.17" z="0.00" type="priority" />
	<node id="667387213" x="427947.02" y="4582882.56" z="0.00" type="traffic_light" />
	<node id="667387217" x="427962.97" y="4582930.59" z="0.00" type="priority" />
	<node id="667387220" x="427920.75" y="4582932.97" z="0.00" type="priority" />
	<node id="667387223" x="427912.79" y="4582900.39" z="0.00" type="traffic_light" />
	<node id="667395973" x="428153.72" y="4583063.97" z="0.00" type="priority" />
	<node id="667395974" x="428036.30" y="4582888.98" z="0.00" type="priority" />
	<node id="678297060" x="429119.29" y="4583474.02" z="0.00" type="priority" />
	<node id="678297076" x="429053.25" y="4583546.92" z="0.00" type="priority" />
	<node id="6842012554" x="429074.48" y="4582108.89" z="0.00" type="traffic_light" />
	<node id="6874436564" x="429199.77" y="4582392.77" z="0.00" type="traffic_light" />
	<node id="692247933" x="427605.51" y="4583229.31" z="0.00" type="priority" />
	<node id="7009820327" x="428868.18" y="4583044.90" z="0.00" type="traffic_light" />
	<node id="7009820328" x="428905.81" y="4583041.02" z="0.00" type="traffic_light" />
	<node id="7009893298" x="429098.69" y="4582506.35" z="0.00" type="traffic_light" />
	<node id="7009893326" x="428960.36" y="4582411.66" z="0.00" type="traffic_light" />
	<node id="7009893327" x="429000.92" y="4582410.92" z="0.00" type="traffic_light" />
	<node id="7490465812" x="428773.50" y="4582967.75" z="0.00" type="traffic_light" />
	<node id="7490465813" x="428769.31" y="4582989.00" z="0.00" type="traffic_light" />
	<node id="7490465823" x="428624.16" y="4582848.58" z="0.00" type="traffic_light" />
	<node id="7490465827" x="428539.46" y="4582777.92" z="0.00" type="traffic_light" />
	<node id="8033328937" x="427880.09" y="4582393.22" z="0.00" type="priority" />
	<node id="8039245592" x="427862.68" y="4582415.85" z="0.00" type="priority" />
	<node id="8097353540" x="428540.15" y="4582645.91" z="0.00" type="priority" />
	<node id="8121505583" x="428520.57" y="4582123.57" z="0.00" type="traffic_light" />
	<node id="8121505588" x="428610.21" y="4582189.94" z="0.00" type="traffic_light" />
	<node id="8121505590" x="428614.69" y="4582214.06" z="0.00" type="traffic_light" />
	<node id="8121505591" x="428576.78" y="4582224.70" z="0.00" type="traffic_light" />
	<node id="8121505592" x="428580.96" y="4582181.39" z="0.00" type="traffic_light" />
	<node id="8121505610" x="428674.75" y="4582126.09" z="0.00" type="traffic_light" />
	<node id="8127179055" x="428213.24" y="4582512.66" z="0.00" type="traffic_light" />
	<node id="8127267265" x="429058.52" y="4582648.28" z="0.00" type="traffic_light" />
	<node id="8127267284" x="428975.30" y="4582591.36" z="0.00" type="traffic_light" />
	<node id="8127267285" x="428999.94" y="4582592.25" z="0.00" type="traffic_light" />
	<node id="8127267288" x="428962.90" y="4582556.21" z="0.00" type="traffic_light" />
	<node id="8127267289" x="429009.60" y="4582556.52" z="0.00" type="traffic_light" />
	<node id="8127267295" x="428901.41" y="4582470.71" z="0.00" type="traffic_light" />
	<node id="8127267297" x="428903.49" y="4582497.82" z="0.00" type="traffic_light" />
	<node id="8127267299" x="428865.21" y="4582460.89" z="0.00" type="traffic_light" />
	<node id="8127267300" x="428867.01" y="4582505.85" z="0.00" type="traffic_light" />
	<node id="8127267314" x="428818.64" y="4582605.89" z="0.00" type="traffic_light" />
	<node id="8127267315" x="428771.34" y="4582604.72" z="0.00" type="traffic_light" />
	<node id="8127267316" x="428682.93" y="4582660.05" z="0.00" type="traffic_light" />
	<node id="8127290517" x="428678.44" y="4582701.26" z="0.00" type="traffic_light" />
	<node id="8127290527" x="428673.51" y="4582508.78" z="0.00" type="traffic_light" />
	<node id="8127290529" x="428722.17" y="4582510.34" z="0.00" type="traffic_light" />
	<node id="8127290530" x="428613.44" y="4582418.86" z="0.00" type="traffic_light" />
	<node id="8127290531" x="428656.99" y="4582409.67" z="0.00" type="traffic_light" />
	<node id="8127290533" x="428640.75" y="4582431.36" z="0.00" type="traffic_light" />
	<node id="8127290534" x="428617.98" y="4582408.00" z="0.00" type="traffic_light" />
	<node id="8174151452" x="428199.24" y="4582100.34" z="0.00" type="priority" />
	<node id="8197555115" x="428226.33" y="4582512.47" z="0.00" type="traffic_light" />
	<node id="8197555116" x="428226.13" y="4582499.51" z="0.00" type="priority" />
	<node id="8201662251" x="429087.78" y="4582853.26" z="0.00" type="traffic_light" />
	<node id="823781710" x="428499.92" y="4582672.67" z="0.00" type="priority" />
	<node id="8514915325" x="428050.04" y="4582419.02" z="0.00" type="priority" />
	<node id="8514915326" x="428058.87" y="4582425.54" z="0.00" type="priority" />
	<node id="8529175050" x="429046.43" y="4583540.00" z="0.00" type="traffic_light" />
	<node id="8529353196" x="427828.84" y="4582582.45" z="0.00" type="traffic_light" />
	<node id="8529353197" x="427811.98" y="4582572.44" z="0.00" type="traffic_light" />
	<node id="8529389962" x="427770.41" y="4582676.43" z="0.00" type="traffic_light" />
	<node id="8530284746" x="429019.12" y="4583396.34" z="0.00" type="traffic_light" />
	<node id="8530318475" x="428209.59" y="4583145.92" z="0.00" type="traffic_light" />
	<node id="8530318477" x="428327.91" y="4583015.20" z="0.00" type="traffic_light" />
	<node id="8530318478" x="428312.88" y="4582997.62" z="0.00" type="traffic_light" />
	<node id="8530318479" x="428389.78" y="4582933.75" z="0.00" type="traffic_light" />
	<node id="8530318480" x="428411.44" y="4582928.47" z="0.00" type="traffic_light" />
	<node id="8530326055" x="428426.46" y="4583342.71" z="0.00" type="traffic_light" />
	<node id="8530326057" x="428490.23" y="4583279.15" z="0.00" type="traffic_light" />
	<node id="8530326059" x="428535.47" y="4583233.59" z="0.00" type="traffic_light" />
	<node id="8530326060" x="428553.23" y="4583231.81" z="0.00" type="traffic_light" />
	<node id="8530326061" x="428596.87" y="4583169.74" z="0.00" type="traffic_light" />
	<node id="8530326062" x="428595.80" y="4583154.53" z="0.00" type="traffic_light" />
	<node id="8530326063" x="428641.29" y="4583121.82" z="0.00" type="traffic_light" />
	<node id="8530326064" x="428660.74" y="4583120.22" z="0.00" type="traffic_light" />
	<node id="8530326065" x="428688.64" y="4583059.09" z="0.00" type="traffic_light" />
	<node id="8530326066" x="428687.10" y="4583074.05" z="0.00" type="traffic_light" />
	<node id="8530364013" x="428803.75" y="4583145.95" z="0.00" type="traffic_light" />
	<node id="8530364014" x="428785.27" y="4583216.36" z="0.00" type="traffic_light" />
	<node id="8530366317" x="428723.68" y="4583252.89" z="0.00" type="traffic_light" />
	<node id="8530366319" x="428674.79" y="4583348.46" z="0.00" type="traffic_light" />
	<node id="951467903" x="428982.16" y="4582200.10" z="0.00" type="traffic_light" />
	<node id="998592654" x="427968.06" y="4582360.16" z="0.00" type="traffic_light" />
	<node id="998592677" x="427650.19" y="4582132.10" z="0.00" type="priority" />
	<node id="998637904" x="428174.93" y="4582511.39" z="0.00" type="priority" />
</nodes>
