<?xml version="1.0" encoding="UTF-8"?>

<!-- generated on 2021-10-01 11:20:03 by Eclipse SUMO netconvert Version 1.10.0
<configuration xmlns:xsi="http://www.w3.org/2001/XMLSchema-instance" xsi:noNamespaceSchemaLocation="http://sumo.dlr.de/xsd/netconvertConfiguration.xsd">

    <input>
        <node-files value="/Users/pabloosinaga/Development/TU-Berlin/mosaic-nes-applications/tools/scenario-generator/examples/scenarios/leipzig/application/leipzig.nod.xml"/>
        <edge-files value="/Users/pabloosinaga/Development/TU-Berlin/mosaic-nes-applications/tools/scenario-generator/examples/scenarios/leipzig/application/leipzig.edg.xml"/>
        <connection-files value="/Users/pabloosinaga/Development/TU-Berlin/mosaic-nes-applications/tools/scenario-generator/examples/scenarios/leipzig/application/leipzig.con.xml"/>
    </input>

    <output>
        <output-file value="/Users/pabloosinaga/Development/TU-Berlin/mosaic-nes-applications/tools/scenario-generator/examples/scenarios/leipzig/application/leipzig.net.xml"/>
    </output>

    <report>
        <aggregate-warnings value="5"/>
    </report>

</configuration>
-->

<net version="1.9" junctionCornerDetail="5" limitTurnSpeed="5.50" xmlns:xsi="http://www.w3.org/2001/XMLSchema-instance" xsi:noNamespaceSchemaLocation="http://sumo.dlr.de/xsd/net_file.xsd">

    <location netOffset="-301657.99,-5698856.68" convBoundary="0.00,0.00,7467.00,4387.62" origBoundary="301657.99,5698856.68,309124.99,5703244.30" projParameter="!"/>

    <edge id=":1007657719_0" function="internal">
        <lane id=":1007657719_0_0" index="0" speed="36.11" length="8.00" shape="4456.26,2016.84 4463.93,2014.55"/>
        <lane id=":1007657719_0_1" index="1" speed="36.11" length="8.00" shape="4457.18,2019.91 4464.84,2017.61"/>
        <lane id=":1007657719_0_2" index="2" speed="36.11" length="8.00" shape="4458.11,2022.97 4465.75,2020.68"/>
    </edge>
    <edge id=":1007657722_0" function="internal">
        <lane id=":1007657722_0_0" index="0" speed="36.11" length="0.30" shape="4522.33,1997.19 4522.60,1997.11"/>
        <lane id=":1007657722_0_1" index="1" speed="36.11" length="0.30" shape="4523.25,2000.26 4523.53,2000.17"/>
        <lane id=":1007657722_0_2" index="2" speed="36.11" length="0.30" shape="4524.16,2003.32 4524.46,2003.23"/>
    </edge>
    <edge id=":1007657747_0" function="internal">
        <lane id=":1007657747_0_0" index="0" speed="36.11" length="0.29" shape="4084.44,2165.31 4084.20,2165.39"/>
        <lane id=":1007657747_0_1" index="1" speed="36.11" length="0.29" shape="4083.47,2162.26 4083.19,2162.35"/>
        <lane id=":1007657747_0_2" index="2" speed="36.11" length="0.29" shape="4082.50,2159.21 4082.19,2159.31"/>
    </edge>
    <edge id=":1007657751_0" function="internal">
        <lane id=":1007657751_0_0" index="0" speed="27.77" length="9.40" shape="4121.04,2160.36 4116.62,2152.06"/>
        <lane id=":1007657751_0_1" index="1" speed="27.77" length="9.48" shape="4120.06,2157.32 4114.89,2149.37"/>
    </edge>
    <edge id=":1007657751_2" function="internal">
        <lane id=":1007657751_2_0" index="0" speed="36.11" length="1.74" shape="4119.07,2154.27 4118.21,2154.55"/>
        <lane id=":1007657751_2_1" index="1" speed="36.11" length="1.74" shape="4118.08,2151.23 4116.43,2151.76"/>
        <lane id=":1007657751_2_2" index="2" speed="36.11" length="1.74" shape="4117.10,2148.18 4114.64,2148.97"/>
    </edge>
    <edge id=":1359819170_0" function="internal">
        <lane id=":1359819170_0_0" index="0" speed="19.44" length="0.29" shape="2926.34,2468.48 2926.64,2468.39"/>
        <lane id=":1359819170_0_1" index="1" speed="19.44" length="0.29" shape="2927.19,2471.56 2927.46,2471.49"/>
    </edge>
    <edge id=":1359819186_0" function="internal">
        <lane id=":1359819186_0_0" index="0" speed="36.11" length="8.00" shape="3520.53,2340.84 3512.87,2343.08"/>
        <lane id=":1359819186_0_1" index="1" speed="36.11" length="8.00" shape="3519.64,2337.77 3511.96,2340.02"/>
        <lane id=":1359819186_0_2" index="2" speed="36.11" length="8.00" shape="3518.75,2334.69 3511.05,2336.95"/>
    </edge>
    <edge id=":1359819197_0" function="internal">
        <lane id=":1359819197_0_0" index="0" speed="27.78" length="8.27" shape="3434.62,1845.44 3436.01,1847.54 3437.60,1848.57 3439.19,1849.59 3440.55,1851.71"/>
        <lane id=":1359819197_0_1" index="1" speed="27.78" length="8.27" shape="3434.62,1845.44 3437.58,1852.88"/>
        <lane id=":1359819197_0_2" index="2" speed="27.78" length="8.27" shape="3431.65,1846.63 3434.60,1854.05"/>
    </edge>
    <edge id=":1359819220_0" function="internal">
        <lane id=":1359819220_0_0" index="0" speed="27.77" length="7.61" shape="3824.62,2212.50 3826.85,2212.16 3828.39,2211.94 3829.90,2211.63 3832.07,2210.99"/>
    </edge>
    <edge id=":1359819220_1" function="internal">
        <lane id=":1359819220_1_0" index="0" speed="36.11" length="8.16" shape="3825.14,2215.84 3833.06,2214.03"/>
        <lane id=":1359819220_1_1" index="1" speed="36.11" length="8.16" shape="3826.10,2218.90 3834.05,2217.07"/>
        <lane id=":1359819220_1_2" index="2" speed="36.11" length="8.16" shape="3827.05,2221.95 3835.04,2220.11"/>
    </edge>
    <edge id=":1359819228_0" function="internal">
        <lane id=":1359819228_0_0" index="0" speed="25.00" length="3.65" shape="3479.49,1950.80 3479.90,1951.80 3480.21,1952.47 3480.58,1953.12 3481.14,1954.04"/>
        <lane id=":1359819228_0_1" index="1" speed="25.00" length="4.20" shape="3476.52,1951.97 3476.98,1953.12 3477.34,1953.90 3477.76,1954.64 3478.40,1955.71"/>
    </edge>
    <edge id=":1359819228_2" function="internal">
        <lane id=":1359819228_2_0" index="0" speed="27.78" length="4.48" shape="3473.54,1953.14 3475.33,1957.24"/>
    </edge>
    <edge id=":1359819245_0" function="internal">
        <lane id=":1359819245_0_0" index="0" speed="27.77" length="8.00" shape="3247.43,2426.76 3245.09,2427.11 3243.51,2427.51 3241.96,2428.04 3239.70,2428.75"/>
    </edge>
    <edge id=":1359819245_1" function="internal">
        <lane id=":1359819245_1_0" index="0" speed="36.11" length="3.09" shape="3241.63,2424.37 3240.77,2424.71 3240.22,2425.03 3239.67,2425.35 3238.80,2425.68"/>
        <lane id=":1359819245_1_1" index="1" speed="36.11" length="3.09" shape="3240.71,2421.31 3239.86,2421.64 3239.31,2421.96 3238.77,2422.28 3237.91,2422.60"/>
        <lane id=":1359819245_1_2" index="2" speed="36.11" length="3.09" shape="3239.79,2418.25 3238.95,2418.57 3238.41,2418.89 3237.87,2419.21 3237.02,2419.53"/>
    </edge>
    <edge id=":1359819253_0" function="internal">
        <lane id=":1359819253_0_0" index="0" speed="19.44" length="3.44" shape="3148.20,2405.06 3149.18,2404.78 3149.84,2404.54 3150.46,2404.22 3151.33,2403.69"/>
        <lane id=":1359819253_0_1" index="1" speed="19.44" length="4.34" shape="3149.05,2408.14 3150.29,2407.79 3151.12,2407.49 3151.90,2407.08 3153.01,2406.42"/>
    </edge>
    <edge id=":1359819253_2" function="internal">
        <lane id=":1359819253_2_0" index="0" speed="19.44" length="4.52" shape="3149.90,2411.22 3154.20,2409.84"/>
    </edge>
    <edge id=":1359819288_0" function="internal">
        <lane id=":1359819288_0_0" index="0" speed="27.77" length="6.11" shape="2815.06,2506.01 2820.87,2504.14"/>
        <lane id=":1359819288_0_1" index="1" speed="27.77" length="8.25" shape="2815.94,2509.09 2823.77,2506.48"/>
    </edge>
    <edge id=":1359819288_2" function="internal">
        <lane id=":1359819288_2_0" index="0" speed="36.11" length="3.04" shape="2816.83,2512.16 2819.83,2511.48"/>
        <lane id=":1359819288_2_1" index="1" speed="36.11" length="3.04" shape="2817.72,2515.24 2820.69,2514.56"/>
        <lane id=":1359819288_2_2" index="2" speed="36.11" length="3.04" shape="2818.60,2518.31 2821.55,2517.65"/>
    </edge>
    <edge id=":1359819290_0" function="internal">
        <lane id=":1359819290_0_0" index="0" speed="19.44" length="3.18" shape="2916.74,2471.13 2919.89,2470.26"/>
        <lane id=":1359819290_0_1" index="1" speed="19.44" length="3.18" shape="2917.76,2474.16 2920.74,2473.34"/>
    </edge>
    <edge id=":1367859990_0" function="internal">
        <lane id=":1367859990_0_0" index="0" speed="13.11" length="3.59" shape="3703.49,2668.79 3703.08,2667.81 3702.74,2667.16 3702.29,2666.58 3701.57,2665.81"/>
        <lane id=":1367859990_0_1" index="1" speed="15.12" length="4.81" shape="3706.46,2667.60 3705.91,2666.29 3705.45,2665.42 3704.85,2664.64 3703.88,2663.60"/>
    </edge>
    <edge id=":1367859990_2" function="internal">
        <lane id=":1367859990_2_0" index="0" speed="20.83" length="4.44" shape="3709.43,2666.41 3707.68,2662.32"/>
    </edge>
    <edge id=":1367859991_0" function="internal">
        <lane id=":1367859991_0_0" index="0" speed="19.45" length="0.29" shape="3595.83,2387.83 3595.72,2387.56"/>
    </edge>
    <edge id=":1367859994_0" function="internal">
        <lane id=":1367859994_0_0" index="0" speed="16.67" length="0.30" shape="3586.22,2364.83 3586.11,2364.56"/>
    </edge>
    <edge id=":1368060765_0" function="internal">
        <lane id=":1368060765_0_0" index="0" speed="36.11" length="0.30" shape="3953.62,3249.58 3953.50,3249.31"/>
        <lane id=":1368060765_0_1" index="1" speed="36.11" length="0.30" shape="3956.58,3248.38 3956.47,3248.10"/>
        <lane id=":1368060765_0_2" index="2" speed="36.11" length="0.30" shape="3959.54,3247.17 3959.43,3246.89"/>
    </edge>
    <edge id=":1368171010_0" function="internal">
        <lane id=":1368171010_0_0" index="0" speed="19.44" length="0.30" shape="3613.38,2268.80 3613.68,2268.71"/>
        <lane id=":1368171010_0_1" index="1" speed="19.44" length="0.30" shape="3614.32,2271.86 3614.59,2271.78"/>
    </edge>
    <edge id=":1368171013_0" function="internal">
        <lane id=":1368171013_0_0" index="0" speed="12.56" length="3.61" shape="3562.79,2164.19 3562.81,2165.26 3562.89,2165.99 3563.10,2166.70 3563.50,2167.68"/>
    </edge>
    <edge id=":1368171013_1" function="internal">
        <lane id=":1368171013_1_0" index="0" speed="27.78" length="3.82" shape="3559.15,2165.37 3560.55,2168.93"/>
    </edge>
    <edge id=":1368171014_0" function="internal">
        <lane id=":1368171014_0_0" index="0" speed="13.56" length="3.58" shape="3712.22,2239.66 3713.23,2239.35 3713.91,2239.07 3714.53,2238.68 3715.37,2238.05"/>
    </edge>
    <edge id=":1368171014_1" function="internal">
        <lane id=":1368171014_1_0" index="0" speed="19.44" length="3.89" shape="3713.12,2242.73 3716.82,2241.51"/>
    </edge>
    <edge id=":1368171015_0" function="internal">
        <lane id=":1368171015_0_0" index="0" speed="19.45" length="3.96" shape="3666.65,2423.26 3667.09,2424.35 3667.46,2425.06 3667.91,2425.73 3668.62,2426.68"/>
    </edge>
    <edge id=":1368171015_1" function="internal">
        <lane id=":1368171015_1_0" index="0" speed="27.78" length="4.41" shape="3663.67,2424.42 3665.53,2428.42"/>
    </edge>
    <edge id=":1368171018_0" function="internal">
        <lane id=":1368171018_0_0" index="0" speed="15.28" length="3.38" shape="3444.61,2319.29 3445.61,2319.23 3446.29,2319.15 3446.96,2318.99 3447.92,2318.71"/>
    </edge>
    <edge id=":1368171018_1" function="internal">
        <lane id=":1368171018_1_0" index="0" speed="19.44" length="3.75" shape="3445.22,2322.76 3448.84,2321.78"/>
    </edge>
    <edge id=":1368171019_0" function="internal">
        <lane id=":1368171019_0_0" index="0" speed="19.44" length="0.30" shape="3547.40,2288.87 3547.68,2288.78"/>
        <lane id=":1368171019_0_1" index="1" speed="19.44" length="0.30" shape="3548.32,2291.93 3548.61,2291.84"/>
    </edge>
    <edge id=":17084347_0" function="internal">
        <lane id=":17084347_0_0" index="0" speed="26.39" length="9.80" shape="4256.52,2083.64 4256.44,2073.84"/>
    </edge>
    <edge id=":17084347_1" function="internal">
        <lane id=":17084347_1_0" index="0" speed="36.11" length="6.09" shape="4251.43,2078.50 4257.37,2076.90"/>
        <lane id=":17084347_1_1" index="1" speed="36.11" length="6.09" shape="4252.41,2081.54 4258.29,2079.97"/>
        <lane id=":17084347_1_2" index="2" speed="36.11" length="6.09" shape="4253.39,2084.59 4259.22,2083.03"/>
    </edge>
    <edge id=":17088367_0" function="internal">
        <lane id=":17088367_0_0" index="0" speed="19.44" length="3.66" shape="3842.25,2412.97 3838.94,2414.53"/>
    </edge>
    <edge id=":17088367_1" function="internal">
        <lane id=":17088367_1_0" index="0" speed="19.44" length="4.02" shape="3839.59,2411.18 3838.73,2411.89 3837.81,2411.96 3836.87,2412.02 3835.94,2412.68"/>
        <lane id=":17088367_1_1" index="1" speed="19.44" length="4.02" shape="3836.94,2409.39 3836.11,2410.04 3835.23,2410.08 3834.32,2410.09 3833.43,2410.69"/>
    </edge>
    <edge id=":17088368_0" function="internal">
        <lane id=":17088368_0_0" index="0" speed="19.44" length="0.35" shape="3704.64,2501.65 3704.49,2501.71 3704.39,2501.75 3704.29,2501.78 3704.14,2501.82"/>
        <lane id=":17088368_0_1" index="1" speed="19.44" length="0.35" shape="3703.46,2498.68 3703.41,2498.70 3703.38,2498.71 3703.34,2498.72 3703.29,2498.73"/>
    </edge>
    <edge id=":17088370_0" function="internal">
        <lane id=":17088370_0_0" index="0" speed="19.44" length="3.30" shape="3385.05,2387.06 3384.47,2386.21 3384.05,2385.64 3383.67,2385.06 3383.16,2384.17"/>
        <lane id=":17088370_0_1" index="1" speed="19.44" length="3.30" shape="3387.72,2385.30 3387.19,2384.52 3386.81,2384.01 3386.45,2383.48 3385.99,2382.66"/>
    </edge>
    <edge id=":17088373_0" function="internal">
        <lane id=":17088373_0_0" index="0" speed="19.44" length="0.29" shape="3385.13,2059.31 3385.22,2059.05"/>
        <lane id=":17088373_0_1" index="1" speed="19.44" length="0.29" shape="3388.16,2060.33 3388.26,2060.04"/>
    </edge>
    <edge id=":17088374_0" function="internal">
        <lane id=":17088374_0_0" index="0" speed="36.11" length="5.38" shape="3387.11,1850.34 3385.34,1845.30"/>
        <lane id=":17088374_0_1" index="1" speed="36.11" length="5.38" shape="3390.09,1849.18 3388.31,1844.11"/>
        <lane id=":17088374_0_2" index="2" speed="36.11" length="5.38" shape="3393.08,1848.03 3391.28,1842.91"/>
    </edge>
    <edge id=":17088374_3" function="internal">
        <lane id=":17088374_3_0" index="0" speed="27.77" length="4.91" shape="3380.55,1851.44 3379.40,1847.69"/>
        <lane id=":17088374_3_1" index="1" speed="27.77" length="4.91" shape="3384.19,1852.11 3382.37,1846.50"/>
    </edge>
    <edge id=":192486480_0" function="internal">
        <lane id=":192486480_0_0" index="0" speed="19.44" length="0.53" shape="3239.60,2347.73 3239.67,2347.68 3239.71,2347.64 3239.74,2347.60 3239.80,2347.55"/>
        <lane id=":192486480_0_1" index="1" speed="19.44" length="0.53" shape="3241.59,2350.24 3241.77,2350.09 3241.90,2349.98 3242.01,2349.87 3242.17,2349.69"/>
    </edge>
    <edge id=":192486498_0" function="internal">
        <lane id=":192486498_0_0" index="0" speed="19.44" length="3.39" shape="3354.59,2141.39 3354.87,2140.50 3354.69,2139.80 3354.47,2139.07 3354.61,2138.11"/>
    </edge>
    <edge id=":192486498_1" function="internal">
        <lane id=":192486498_1_0" index="0" speed="19.44" length="3.60" shape="3357.93,2142.78 3357.96,2141.74 3357.67,2141.01 3357.42,2140.28 3357.58,2139.29"/>
    </edge>
    <edge id=":194574597_0" function="internal">
        <lane id=":194574597_0_0" index="0" speed="23.61" length="3.40" shape="3777.34,2694.87 3777.48,2695.87 3777.61,2696.55 3777.83,2697.21 3778.20,2698.14"/>
    </edge>
    <edge id=":194574597_1" function="internal">
        <lane id=":194574597_1_0" index="0" speed="27.78" length="3.35" shape="3773.96,2696.24 3775.23,2699.34"/>
    </edge>
    <edge id=":194574604_0" function="internal">
        <lane id=":194574604_0_0" index="0" speed="31.95" length="3.17" shape="3855.95,2912.70 3856.36,2913.50 3856.89,2913.91 3857.44,2914.32 3857.93,2915.09"/>
    </edge>
    <edge id=":194574604_1" function="internal">
        <lane id=":194574604_1_0" index="0" speed="36.11" length="3.35" shape="3852.77,2913.72 3853.29,2914.55 3853.86,2914.99 3854.44,2915.43 3854.95,2916.27"/>
        <lane id=":194574604_1_1" index="1" speed="36.11" length="3.35" shape="3849.82,2914.97 3850.34,2915.79 3850.91,2916.21 3851.47,2916.64 3851.98,2917.46"/>
        <lane id=":194574604_1_2" index="2" speed="36.11" length="3.35" shape="3846.88,2916.23 3847.38,2917.02 3847.95,2917.43 3848.51,2917.84 3849.01,2918.64"/>
    </edge>
    <edge id=":194584922_0" function="internal">
        <lane id=":194584922_0_0" index="0" speed="27.77" length="3.68" shape="3797.62,2872.66 3796.10,2869.30"/>
    </edge>
    <edge id=":194584922_1" function="internal">
        <lane id=":194584922_1_0" index="0" speed="36.11" length="3.37" shape="3800.58,2871.46 3799.31,2868.34"/>
        <lane id=":194584922_1_1" index="1" speed="36.11" length="3.37" shape="3803.55,2870.26 3802.27,2867.14"/>
        <lane id=":194584922_1_2" index="2" speed="36.11" length="3.37" shape="3806.52,2869.06 3805.24,2865.94"/>
    </edge>
    <edge id=":194585117_0" function="internal">
        <lane id=":194585117_0_0" index="0" speed="19.44" length="0.30" shape="3350.24,2350.85 3350.53,2350.76"/>
    </edge>
    <edge id=":194585120_0" function="internal">
        <lane id=":194585120_0_0" index="0" speed="19.44" length="0.30" shape="3384.73,2340.49 3385.02,2340.40"/>
    </edge>
    <edge id=":213125824_0" function="internal">
        <lane id=":213125824_0_0" index="0" speed="19.44" length="0.28" shape="3636.22,2513.85 3635.91,2513.88"/>
        <lane id=":213125824_0_1" index="1" speed="19.44" length="0.28" shape="3635.96,2510.67 3635.71,2510.68"/>
    </edge>
    <edge id=":213126996_0" function="internal">
        <lane id=":213126996_0_0" index="0" speed="19.44" length="3.36" shape="3363.90,2348.05 3363.38,2347.13 3363.01,2346.51 3362.67,2345.87 3362.26,2344.91"/>
        <lane id=":213126996_0_1" index="1" speed="19.44" length="3.36" shape="3366.72,2346.54 3366.25,2345.72 3365.92,2345.16 3365.61,2344.60 3365.23,2343.73"/>
    </edge>
    <edge id=":25581553_0" function="internal">
        <lane id=":25581553_0_0" index="0" speed="23.61" length="9.44" shape="3672.74,2288.98 3672.63,2298.42"/>
    </edge>
    <edge id=":25581553_1" function="internal">
        <lane id=":25581553_1_0" index="0" speed="36.11" length="2.85" shape="3674.32,2294.56 3671.67,2295.37"/>
        <lane id=":25581553_1_1" index="1" speed="36.11" length="2.85" shape="3673.45,2291.48 3670.72,2292.31"/>
        <lane id=":25581553_1_2" index="2" speed="36.11" length="2.85" shape="3672.58,2288.40 3669.77,2289.26"/>
    </edge>
    <edge id=":25581554_0" function="internal">
        <lane id=":25581554_0_0" index="0" speed="36.11" length="0.36" shape="3563.40,2332.10 3562.95,2332.23"/>
        <lane id=":25581554_0_1" index="1" speed="36.11" length="0.36" shape="3562.47,2329.04 3562.08,2329.15"/>
        <lane id=":25581554_0_2" index="2" speed="36.11" length="0.36" shape="3561.53,2325.98 3561.22,2326.07"/>
        <lane id=":25581554_0_3" index="3" speed="36.11" length="0.36" shape="3560.59,2322.92 3560.36,2322.99"/>
    </edge>
    <edge id=":25581555_0" function="internal">
        <lane id=":25581555_0_0" index="0" speed="36.11" length="0.30" shape="3367.07,2386.62 3366.77,2386.71"/>
        <lane id=":25581555_0_1" index="1" speed="36.11" length="0.30" shape="3366.13,2383.56 3365.85,2383.65"/>
        <lane id=":25581555_0_2" index="2" speed="36.11" length="0.30" shape="3365.20,2380.50 3364.93,2380.58"/>
    </edge>
    <edge id=":25581558_0" function="internal">
        <lane id=":25581558_0_0" index="0" speed="36.11" length="0.30" shape="3354.54,2356.91 3354.84,2356.82"/>
        <lane id=":25581558_0_1" index="1" speed="36.11" length="0.30" shape="3355.46,2359.97 3355.75,2359.89"/>
        <lane id=":25581558_0_2" index="2" speed="36.11" length="0.30" shape="3356.38,2363.04 3356.66,2362.96"/>
    </edge>
    <edge id=":25581559_0" function="internal">
        <lane id=":25581559_0_0" index="0" speed="36.11" length="0.30" shape="3551.53,2298.48 3551.81,2298.39"/>
        <lane id=":25581559_0_1" index="1" speed="36.11" length="0.30" shape="3552.44,2301.54 3552.73,2301.46"/>
        <lane id=":25581559_0_2" index="2" speed="36.11" length="0.30" shape="3553.35,2304.61 3553.65,2304.52"/>
    </edge>
    <edge id=":25581560_0" function="internal">
        <lane id=":25581560_0_0" index="0" speed="36.11" length="0.30" shape="3617.48,2278.63 3617.76,2278.55"/>
        <lane id=":25581560_0_1" index="1" speed="36.11" length="0.30" shape="3618.40,2281.70 3618.69,2281.61"/>
        <lane id=":25581560_0_2" index="2" speed="36.11" length="0.30" shape="3619.32,2284.76 3619.61,2284.67"/>
    </edge>
    <edge id=":2837178468_0" function="internal">
        <lane id=":2837178468_0_0" index="0" speed="36.11" length="8.00" shape="3011.62,920.05 3008.62,912.64"/>
        <lane id=":2837178468_0_1" index="1" speed="36.11" length="8.00" shape="3014.59,918.86 3011.59,911.44"/>
        <lane id=":2837178468_0_2" index="2" speed="36.11" length="8.00" shape="3017.55,917.66 3014.56,910.24"/>
    </edge>
    <edge id=":2837178469_0" function="internal">
        <lane id=":2837178469_0_0" index="0" speed="36.11" length="8.20" shape="3155.86,1188.68 3157.25,1190.77 3158.84,1191.79 3160.44,1192.80 3161.82,1194.90"/>
        <lane id=":2837178469_0_1" index="1" speed="36.11" length="8.20" shape="3155.86,1188.68 3158.86,1196.09"/>
        <lane id=":2837178469_0_2" index="2" speed="36.11" length="8.20" shape="3152.89,1189.87 3155.89,1197.29"/>
        <lane id=":2837178469_0_3" index="3" speed="36.11" length="8.20" shape="3149.93,1191.07 3152.92,1198.49"/>
    </edge>
    <edge id=":2837178470_0" function="internal">
        <lane id=":2837178470_0_0" index="0" speed="36.11" length="8.16" shape="3191.56,1268.56 3192.94,1270.66 3194.54,1271.67 3196.14,1272.69 3197.52,1274.79"/>
        <lane id=":2837178470_0_1" index="1" speed="36.11" length="8.16" shape="3191.56,1268.56 3194.55,1275.98"/>
        <lane id=":2837178470_0_2" index="2" speed="36.11" length="8.16" shape="3188.59,1269.76 3191.58,1277.18"/>
        <lane id=":2837178470_0_3" index="3" speed="36.11" length="8.16" shape="3185.62,1270.96 3188.62,1278.37"/>
        <lane id=":2837178470_0_4" index="4" speed="36.11" length="8.16" shape="3182.66,1272.15 3185.65,1279.57"/>
    </edge>
    <edge id=":2837178471_0" function="internal">
        <lane id=":2837178471_0_0" index="0" speed="36.11" length="0.10" shape="3184.73,1365.62 3184.73,1365.62"/>
        <lane id=":2837178471_0_1" index="1" speed="36.11" length="0.10" shape="3187.70,1364.42 3187.70,1364.42"/>
        <lane id=":2837178471_0_2" index="2" speed="36.11" length="0.10" shape="3190.66,1363.22 3190.66,1363.22"/>
        <lane id=":2837178471_0_3" index="3" speed="36.11" length="0.10" shape="3193.63,1362.02 3193.63,1362.02"/>
        <lane id=":2837178471_0_4" index="4" speed="36.11" length="0.10" shape="3196.60,1360.82 3196.60,1360.82"/>
    </edge>
    <edge id=":2837178474_0" function="internal">
        <lane id=":2837178474_0_0" index="0" speed="16.67" length="0.30" shape="4015.82,2140.72 4016.10,2140.62"/>
        <lane id=":2837178474_0_1" index="1" speed="16.67" length="0.30" shape="4016.84,2143.75 4017.12,2143.65"/>
    </edge>
    <edge id=":2837178475_0" function="internal">
        <lane id=":2837178475_0_0" index="0" speed="36.11" length="8.00" shape="4066.78,2137.91 4074.40,2135.44"/>
        <lane id=":2837178475_0_1" index="1" speed="36.11" length="8.00" shape="4067.77,2140.95 4075.38,2138.49"/>
        <lane id=":2837178475_0_2" index="2" speed="36.11" length="8.00" shape="4068.76,2143.99 4076.36,2141.54"/>
    </edge>
    <edge id=":2837178477_0" function="internal">
        <lane id=":2837178477_0_0" index="0" speed="19.44" length="8.00" shape="3312.32,2240.91 3315.36,2233.51"/>
    </edge>
    <edge id=":2837178478_0" function="internal">
        <lane id=":2837178478_0_0" index="0" speed="19.44" length="8.27" shape="3954.24,2256.74 3952.85,2258.83 3952.55,2260.70 3952.25,2262.57 3950.87,2264.67"/>
        <lane id=":2837178478_0_1" index="1" speed="19.44" length="8.27" shape="3954.24,2256.74 3948.60,2262.41"/>
        <lane id=":2837178478_0_2" index="2" speed="19.44" length="8.27" shape="3951.97,2254.48 3946.33,2260.16"/>
    </edge>
    <edge id=":2837178479_0" function="internal">
        <lane id=":2837178479_0_0" index="0" speed="19.44" length="8.27" shape="3029.70,2441.13 3031.94,2440.01 3033.14,2438.55 3034.33,2437.08 3036.56,2435.94"/>
        <lane id=":2837178479_0_1" index="1" speed="19.44" length="8.27" shape="3029.70,2441.13 3037.41,2439.02"/>
        <lane id=":2837178479_0_2" index="2" speed="19.44" length="8.27" shape="3030.54,2444.22 3038.27,2442.11"/>
    </edge>
    <edge id=":2837178480_0" function="internal">
        <lane id=":2837178480_0_0" index="0" speed="36.11" length="8.00" shape="2980.84,2498.60 2973.13,2500.74"/>
        <lane id=":2837178480_0_1" index="1" speed="36.11" length="8.00" shape="2979.99,2495.51 2972.28,2497.65"/>
        <lane id=":2837178480_0_2" index="2" speed="36.11" length="8.00" shape="2979.13,2492.43 2971.42,2494.57"/>
    </edge>
    <edge id=":2837178481_0" function="internal">
        <lane id=":2837178481_0_0" index="0" speed="19.44" length="0.30" shape="3435.37,2481.04 3435.09,2480.91"/>
        <lane id=":2837178481_0_1" index="1" speed="19.44" length="0.30" shape="3436.76,2478.16 3436.50,2478.04"/>
    </edge>
    <edge id=":2837178482_0" function="internal">
        <lane id=":2837178482_0_0" index="0" speed="36.11" length="8.20" shape="2382.78,2640.27 2385.00,2639.09 2386.15,2637.59 2387.31,2636.10 2389.52,2634.91"/>
        <lane id=":2837178482_0_1" index="1" speed="36.11" length="8.20" shape="2382.78,2640.27 2390.44,2637.98"/>
        <lane id=":2837178482_0_2" index="2" speed="36.11" length="8.20" shape="2383.70,2643.34 2391.36,2641.04"/>
        <lane id=":2837178482_0_3" index="3" speed="36.11" length="8.20" shape="2384.62,2646.40 2392.28,2644.11"/>
    </edge>
    <edge id=":2837178483_0" function="internal">
        <lane id=":2837178483_0_0" index="0" speed="19.44" length="9.02" shape="3770.24,2816.12 3768.17,2814.16 3765.61,2813.90 3763.10,2813.59 3761.18,2811.52"/>
        <lane id=":2837178483_0_1" index="1" speed="19.44" length="9.02" shape="3770.24,2816.12 3768.73,2814.16 3767.10,2813.26 3765.51,2812.33 3764.15,2810.32"/>
        <lane id=":2837178483_0_2" index="2" speed="19.44" length="9.02" shape="3770.24,2816.12 3767.11,2809.11"/>
    </edge>
    <edge id=":2837178484_0" function="internal">
        <lane id=":2837178484_0_0" index="0" speed="27.78" length="8.00" shape="3813.36,2793.91 3816.34,2801.33"/>
    </edge>
    <edge id=":2837178485_0" function="internal">
        <lane id=":2837178485_0_0" index="0" speed="36.11" length="8.20" shape="3885.82,3082.87 3884.43,3080.77 3882.83,3079.76 3881.23,3078.74 3879.85,3076.64"/>
        <lane id=":2837178485_0_1" index="1" speed="36.11" length="8.20" shape="3885.82,3082.87 3882.82,3075.45"/>
        <lane id=":2837178485_0_2" index="2" speed="36.11" length="8.20" shape="3888.79,3081.66 3885.79,3074.25"/>
        <lane id=":2837178485_0_3" index="3" speed="36.11" length="8.20" shape="3891.75,3080.46 3888.75,3073.06"/>
    </edge>
    <edge id=":2837178486_0" function="internal">
        <lane id=":2837178486_0_0" index="0" speed="36.11" length="8.00" shape="3935.60,3118.95 3938.57,3126.36"/>
        <lane id=":2837178486_0_1" index="1" speed="36.11" length="8.00" shape="3932.63,3120.13 3935.60,3127.56"/>
        <lane id=":2837178486_0_2" index="2" speed="36.11" length="8.00" shape="3929.65,3121.31 3932.63,3128.75"/>
    </edge>
    <edge id=":3248957127_0" function="internal">
        <lane id=":3248957127_0_0" index="0" speed="36.11" length="8.73" shape="4551.97,2021.52 4549.68,2023.27 4549.06,2025.76 4548.43,2028.25 4546.13,2029.98"/>
        <lane id=":3248957127_0_1" index="1" speed="36.11" length="8.73" shape="4551.97,2021.52 4549.76,2022.72 4548.60,2024.23 4547.44,2025.73 4545.22,2026.91"/>
        <lane id=":3248957127_0_2" index="2" speed="36.11" length="8.73" shape="4551.97,2021.52 4544.30,2023.84"/>
        <lane id=":3248957127_0_3" index="3" speed="36.11" length="8.73" shape="4551.03,2018.46 4543.39,2020.77"/>
        <lane id=":3248957127_0_4" index="4" speed="36.11" length="8.73" shape="4550.08,2015.40 4542.48,2017.71"/>
    </edge>
    <edge id=":3248957134_0" function="internal">
        <lane id=":3248957134_0_0" index="0" speed="36.11" length="0.30" shape="3629.26,2311.95 3628.96,2312.05"/>
        <lane id=":3248957134_0_1" index="1" speed="36.11" length="0.30" shape="3628.31,2308.90 3628.02,2308.99"/>
        <lane id=":3248957134_0_2" index="2" speed="36.11" length="0.30" shape="3627.36,2305.84 3627.08,2305.93"/>
        <lane id=":3248957134_0_3" index="3" speed="36.11" length="0.30" shape="3626.41,2302.79 3626.14,2302.87"/>
    </edge>
    <edge id=":3616184417_0" function="internal">
        <lane id=":3616184417_0_0" index="0" speed="36.11" length="0.29" shape="2653.24,2589.37 2653.01,2589.44"/>
        <lane id=":3616184417_0_1" index="1" speed="36.11" length="0.29" shape="2652.39,2586.29 2652.11,2586.37"/>
        <lane id=":3616184417_0_2" index="2" speed="36.11" length="0.29" shape="2651.53,2583.20 2651.21,2583.30"/>
    </edge>
    <edge id=":370481030_0" function="internal">
        <lane id=":370481030_0_0" index="0" speed="22.22" length="0.64" shape="3549.77,2038.16 3549.84,2038.22 3549.89,2038.26 3549.95,2038.29 3550.03,2038.34"/>
        <lane id=":370481030_0_1" index="1" speed="22.22" length="0.64" shape="3547.66,2040.57 3547.88,2040.75 3548.03,2040.87 3548.19,2040.98 3548.44,2041.12"/>
    </edge>
    <edge id=":370481031_0" function="internal">
        <lane id=":370481031_0_0" index="0" speed="19.45" length="0.22" shape="3573.54,2051.79 3573.64,2051.85"/>