<edges>
	<edge id="237667614_8127267314_30237632" from="8127267314" to="30237632" numLanes="1" shape="428818.64,4582605.89,0.00 428812.75,4582600.06,0.00 428793.91,4582581.40,0.00" speed="8.33" />
	<edge id="450145193_30558433_8197555116" from="30558433" to="8197555116" numLanes="4" shape="428295.15,4582484.41,0.00 428257.01,4582493.06,0.00 428226.13,4582499.51,0.00" speed="13.89" />
	<edge id="243716770_8127267315_30237632" from="8127267315" to="30237632" numLanes="2" shape="428771.34,4582604.72,0.00 428777.53,4582598.32,0.00 428793.91,4582581.40,0.00" speed="13.89" />
	<edge id="542169702_4472019526_1840720995" from="4472019526" to="1840720995" numLanes="5" shape="428508.88,4582679.66,0.00 428512.51,4582683.87,0.00 428515.54,4582688.51,0.00 428517.15,4582692.12,0.00" speed="13.89" />
	<edge id="542990497_30237694_3434285993" from="30237694" to="3434285993" numLanes="3" shape="428782.43,4582975.45,0.00 428791.97,4582983.58,0.00 428816.48,4583002.89,0.00 428833.34,4583016.66,0.00" speed="13.89" />
	<edge id="244059994_1311619500_364811899" from="1311619500" to="364811899" numLanes="3" shape="428766.06,4582802.15,0.00 428756.79,4582810.78,0.00 428754.86,4582812.57,0.00" speed="13.89" />
	<edge id="238862112_269385954_30558429" from="269385954" to="30558429" numLanes="3" shape="428197.08,4582584.14,0.00 428308.47,4582621.13,0.00 428335.56,4582630.14,0.00" speed="13.89" />
	<edge id="238862112_30558429_4554368828" from="30558429" to="4554368828" numLanes="3" shape="428335.56,4582630.14,0.00 428422.22,4582657.56,0.00 428420.89,4582657.21,0.00 428425.60,4582659.25,0.00 428442.49,4582669.43,0.00 428450.11,4582679.43,0.00" speed="13.89" />
	<edge id="542169704_1840720995_1840721019" from="1840720995" to="1840721019" numLanes="5" shape="428517.15,4582692.12,0.00 428519.55,4582702.67,0.00 428520.23,4582710.65,0.00 428518.21,4582721.77,0.00" speed="13.89" />
	<edge id="173223709_30313252_269381939" from="30313252" to="269381939" numLanes="2" shape="428337.21,4582830.13,0.00 428325.97,4582837.42,0.00 428295.12,4582857.43,0.00 428289.40,4582861.67,0.00 428283.09,4582865.32,0.00" speed="8.33" />
	<edge id="868707436_8097353540_1589583514" from="8097353540" to="1589583514" numLanes="3" shape="428540.15,4582645.91,0.00 428579.61,4582604.79,0.00 428582.88,4582601.37,0.00 428587.00,4582597.08,0.00" speed="13.89" />
	<edge id="538722959_269381077_823781710" from="269381077" to="823781710" numLanes="5" shape="428485.63,4582668.01,0.00 428495.12,4582670.48,0.00 428499.92,4582672.67,0.00" speed="13.89" />
	<edge id="24793591_6099715638_667387213" from="6099715638" to="667387213" numLanes="2" shape="427989.45,4582750.17,0.00 427986.02,4582759.90,0.00 427959.53,4582835.24,0.00 427958.24,4582839.30,0.00 427952.90,4582860.11,0.00 427951.76,4582865.36,0.00 427950.20,4582870.41,0.00 427949.55,4582873.60,0.00 427947.02,4582882.56,0.00" speed="13.89" />
	<edge id="116315067_1382873572_30558435" from="1382873572" to="30558435" numLanes="2" shape="428361.62,4582322.33,0.00 428354.42,4582323.85,0.00 428272.70,4582341.15,0.00 428266.43,4582342.48,0.00" speed="8.33" />
	<edge id="4752000_30313135_30313134" from="30313135" to="30313134" numLanes="2" shape="428491.59,4582907.27,0.00 428494.94,4582909.73,0.00 428530.33,4582935.11,0.00 428534.85,4582938.36,0.00" speed="8.33" />
	<edge id="541430463_30237692_8530326066" from="30237692" to="8530326066" numLanes="3" shape="428650.29,4583112.05,0.00 428653.92,4583108.43,0.00 428658.81,4583103.36,0.00 428687.10,4583074.05,0.00" speed="13.89" />
	<edge id="283778456_269379909_269379910" from="269379909" to="269379910" numLanes="4" shape="428001.70,4582547.44,0.00 427960.50,4582556.05,0.00 427950.68,4582558.10,0.00 427924.52,4582562.73,0.00" speed="13.89" />
	<edge id="541430463_412398661_8530326055" from="412398661" to="8530326055" numLanes="3" shape="428377.57,4583391.68,0.00 428386.35,4583382.88,0.00 428405.47,4583363.74,0.00 428426.46,4583342.71,0.00" speed="13.89" />
	<edge id="237667614_30237635_30237634" from="30237635" to="30237634" numLanes="1" shape="429078.17,4582863.13,0.00 429073.52,4582858.52,0.00 429002.59,4582788.21,0.00 428985.24,4582771.00,0.00" speed="8.33" />
	<edge id="24793206_30558511_59850119" from="30558511" to="59850119" numLanes="4" shape="428072.39,4582210.67,0.00 428063.99,4582222.46,0.00 428049.84,4582242.32,0.00 428014.71,4582291.60,0.00 428006.51,4582302.75,0.00" speed="13.89" />
	<edge id="208606448_30558475_59850119" from="30558475" to="59850119" numLanes="3" shape="428084.34,4582362.41,0.00 428027.21,4582317.10,0.00 428019.56,4582311.81,0.00 428006.51,4582302.75,0.00" speed="13.89" />
	<edge id="4744944_8121505590_30237610" from="8121505590" to="30237610" numLanes="3" shape="428614.69,4582214.06,0.00 428620.62,4582219.86,0.00 428679.89,4582277.79,0.00 428686.32,4582284.08,0.00 428698.04,4582295.54,0.00" speed="13.89" />
	<edge id="4744944_30237610_30313113" from="30237610" to="30313113" numLanes="3" shape="428698.04,4582295.54,0.00 428717.58,4582315.11,0.00 428744.02,4582341.58,0.00 428769.63,4582367.22,0.00 428784.91,4582381.04,0.00" speed="13.89" />
	<edge id="918486004_30313144_30313136" from="30313144" to="30313136" numLanes="2" shape="428402.17,4582921.39,0.00 428441.70,4582880.37,0.00 428448.82,4582872.93,0.00" speed="8.33" />
	<edge id="237667607_1382873617_1469158199" from="1382873617" to="1469158199" numLanes="3" shape="428442.66,4582551.59,0.00 428445.96,4582561.67,0.00 428452.64,4582582.10,0.00 428470.21,4582635.87,0.00 428473.60,4582647.61,0.00 428474.63,4582651.19,0.00 428475.79,4582655.22,0.00" speed="13.89" />
	<edge id="237667614_30237633_8127267314" from="30237633" to="8127267314" numLanes="1" shape="428890.17,4582676.63,0.00 428871.57,4582658.25,0.00 428818.64,4582605.89,0.00" speed="8.33" />
	<edge id="4776847_30558477_30558439" from="30558477" to="30558439" numLanes="2" shape="428280.82,4582200.36,0.00 428273.74,4582206.22,0.00 428245.35,4582229.71,0.00 428242.09,4582232.42,0.00" speed="8.33" />
	<edge id="397481042_1311619500_1311619340" from="1311619500" to="1311619340" numLanes="3" shape="428766.06,4582802.15,0.00 428783.53,4582807.81,0.00 428892.90,4582843.49,0.00 428908.94,4582848.72,0.00" speed="13.89" />
	<edge id="237667620_30246712_30246711" from="30246712" to="30246711" numLanes="3" shape="428569.89,4582427.04,0.00 428554.35,4582442.61,0.00 428521.88,4582475.17,0.00 428503.68,4582493.59,0.00" speed="8.33" />
	<edge id="4752018_8530364014_8530326064" from="8530364014" to="8530326064" numLanes="1" shape="428785.27,4583216.36,0.00 428783.23,4583214.77,0.00 428774.68,4583208.08,0.00 428768.29,4583202.29,0.00 428749.19,4583188.96,0.00 428743.10,4583184.21,0.00 428740.10,4583181.86,0.00 428717.46,4583164.59,0.00 428660.74,4583120.22,0.00" speed="8.33" />
	<edge id="237914516_1382873572_1382873523" from="1382873572" to="1382873523" numLanes="2" shape="428361.62,4582322.33,0.00 428354.05,4582285.57,0.00 428350.46,4582268.18,0.00" speed="13.89" />
	<edge id="553586754_1382873680_30237628" from="1382873680" to="30237628" numLanes="3" shape="428408.11,4582395.19,0.00 428413.92,4582389.52,0.00 428489.28,4582315.90,0.00 428506.97,4582298.62,0.00" speed="8.33" />
	<edge id="192770131_692247933_2087204997" from="692247933" to="2087204997" numLanes="2" shape="427605.51,4583229.31,0.00 427612.07,4583220.31,0.00 427668.41,4583143.05,0.00 427673.12,4583136.59,0.00 427676.87,4583131.41,0.00 427691.97,4583110.51,0.00 427721.10,4583070.17,0.00 427725.84,4583063.60,0.00 427732.20,4583058.75,0.00 427787.53,4582982.72,0.00 427788.36,4582973.77,0.00" speed="8.33" />
	<edge id="52514914_667395973_667395974" from="667395973" to="667395974" numLanes="2" shape="428153.72,4583063.97,0.00 428148.13,4583053.65,0.00 428090.33,4582969.51,0.00 428039.84,4582894.25,0.00 428036.30,4582888.98,0.00" speed="8.33" />
	<edge id="4776834_30558435_30558433" from="30558435" to="30558433" numLanes="2" shape="428266.43,4582342.48,0.00 428267.29,4582347.33,0.00 428268.56,4582353.54,0.00 428280.94,4582413.93,0.00 428282.66,4582420.67,0.00 428291.67,4582467.14,0.00 428295.15,4582484.41,0.00" speed="8.33" />
	<edge id="86057932_8514915325_998592654" from="8514915325" to="998592654" numLanes="2" shape="428050.04,4582419.02,0.00 427979.21,4582367.45,0.00 427968.06,4582360.16,0.00" speed="8.33" />
	<edge id="4752003_30313134_30313163" from="30313134" to="30313163" numLanes="2" shape="428534.85,4582938.36,0.00 428529.75,4582943.76,0.00 428491.70,4582984.09,0.00 428488.37,4582987.62,0.00" speed="8.33" />
	<edge id="153268994_30313252_30313254" from="30313252" to="30313254" numLanes="2" shape="428337.21,4582830.13,0.00 428334.76,4582826.54,0.00 428319.60,4582804.31,0.00 428318.35,4582802.49,0.00" speed="8.33" />
	<edge id="238324867_364811899_430535694" from="364811899" to="430535694" numLanes="1" shape="428754.86,4582812.57,0.00 428738.23,4582807.25,0.00 428631.32,4582773.03,0.00 428574.98,4582754.99,0.00 428565.01,4582751.78,0.00" speed="8.33" />
	<edge id="862963816_8039245592_8033328937" from="8039245592" to="8033328937" numLanes="1" shape="427862.68,4582415.85,0.00 427880.09,4582393.22,0.00" speed="8.33" />
	<edge id="237515356_667387220_1889882329" from="667387220" to="1889882329" numLanes="2" shape="427920.75,4582932.97,0.00 427917.82,4582937.25,0.00 427916.57,4582938.68,0.00 427915.01,4582940.60,0.00 427914.11,4582941.59,0.00 427895.92,4582974.43,0.00 427894.76,4582976.52,0.00" speed="13.89" />
	<edge id="550615021_269381073_1840720982" from="269381073" to="1840720982" numLanes="5" shape="428438.21,4582703.82,0.00 428440.94,4582693.44,0.00 428446.72,4582682.59,0.00" speed="13.89" />
	<edge id="295263584_442540269_364811897" from="442540269" to="364811897" numLanes="1" shape="428636.72,4582745.37,0.00 428651.51,4582750.56,0.00 428762.17,4582785.82,0.00 428778.29,4582791.25,0.00" speed="8.33" />
	<edge id="4752000_30313132_8530326065" from="30313132" to="8530326065" numLanes="2" shape="428616.04,4583003.39,0.00 428622.13,4583007.76,0.00 428625.65,4583010.28,0.00 428638.45,4583019.45,0.00 428688.64,4583059.09,0.00" speed="8.33" />
	<edge id="237506962_7009820327_30248586" from="7009820327" to="30248586" numLanes="3" shape="428868.18,4583044.90,0.00 428871.26,4583047.28,0.00 428886.98,4583060.36,0.00" speed="13.89" />
	<edge id="238768629_269383243_269383881" from="269383243" to="269383881" numLanes="2" shape="427628.23,4582160.67,0.00 427634.15,4582164.87,0.00 427639.54,4582167.79,0.00 427684.77,4582200.37,0.00 427720.41,4582226.62,0.00 427730.70,4582234.20,0.00 427739.98,4582240.54,0.00 427794.13,4582277.56,0.00 427796.12,4582279.04,0.00 427826.75,4582301.80,0.00 427839.47,4582310.95,0.00 427841.72,4582311.86,0.00" speed="8.33" />
	<edge id="450369478_30313256_1479390232" from="30313256" to="1479390232" numLanes="1" shape="428240.50,4582689.20,0.00 428247.30,4582682.83,0.00 428258.05,4582672.75,0.00" speed="13.89" />
	<edge id="709075301_667387223_667387213" from="667387223" to="667387213" numLanes="2" shape="427912.79,4582900.39,0.00 427915.76,4582894.04,0.00 427921.99,4582888.51,0.00 427929.44,4582883.94,0.00 427934.38,4582883.33,0.00 427939.75,4582882.69,0.00 427947.02,4582882.56,0.00" speed="13.89" />
	<edge id="4752003_30313162_30313161" from="30313162" to="30313161" numLanes="2" shape="428442.62,4583036.09,0.00 428438.74,4583040.21,0.00 428404.57,4583076.41,0.00 428398.58,4583082.76,0.00" speed="8.33" />
	<edge id="129169443_269379909_364829686" from="269379909" to="364829686" numLanes="3" shape="428001.70,4582547.44,0.00 428048.46,4582563.33,0.00" speed="13.89" />
	<edge id="295263585_1589583485_8127267299" from="1589583485" to="8127267299" numLanes="4" shape="428807.76,4582405.70,0.00 428812.41,4582410.53,0.00 428865.21,4582460.89,0.00" speed="13.89" />
	<edge id="4746244_1297744704_5584069358" from="1297744704" to="5584069358" numLanes="1" shape="428461.22,4582449.46,0.00 428470.90,4582461.33,0.00 428480.21,4582470.05,0.00" speed="8.33" />
	<edge id="4752003_30313163_30313162" from="30313163" to="30313162" numLanes="2" shape="428488.37,4582987.62,0.00 428483.84,4582992.43,0.00 428446.28,4583031.70,0.00 428442.62,4583036.09,0.00" speed="8.33" />
	<edge id="4744966_30237633_30237770" from="30237633" to="30237770" numLanes="3" shape="428890.17,4582676.63,0.00 428874.87,4582691.96,0.00 428859.51,4582707.36,0.00 428815.30,4582751.64,0.00 428804.07,4582762.89,0.00 428797.33,4582769.64,0.00" speed="13.89" />
	<edge id="145560650_269382534_1840720993" from="269382534" to="1840720993" numLanes="1" shape="428130.10,4582790.70,0.00 428178.21,4582806.08,0.00 428205.62,4582814.83,0.00" speed="8.33" />
	<edge id="43872042_8174151452_30558477" from="8174151452" to="30558477" numLanes="2" shape="428199.24,4582100.34,0.00 428202.18,4582110.87,0.00 428228.25,4582138.19,0.00 428234.36,4582144.73,0.00 428259.56,4582175.38,0.00 428280.82,4582200.36,0.00" speed="8.33" />
	<edge id="35163649_30248583_7490465823" from="30248583" to="7490465823" numLanes="1" shape="428621.54,4582846.27,0.00 428624.16,4582848.58,0.00" speed="13.89" />
	<edge id="24793408_667387217_667387220" from="667387217" to="667387220" numLanes="2" shape="427962.97,4582930.59,0.00 427956.16,4582934.97,0.00 427948.58,4582937.12,0.00 427940.88,4582938.61,0.00 427930.40,4582938.10,0.00 427924.22,4582935.63,0.00 427920.75,4582932.97,0.00" speed="13.89" />
	<edge id="145565048_951467903_2494769767" from="951467903" to="2494769767" numLanes="4" shape="428982.16,4582200.10,0.00 428981.42,4582200.84,0.00 428980.24,4582202.02,0.00 428963.72,4582218.56,0.00 428916.52,4582267.19,0.00 428906.18,4582277.85,0.00 428888.09,4582296.32,0.00" speed="13.89" />
	<edge id="237506962_5249411001_7009820327" from="5249411001" to="7009820327" numLanes="3" shape="428838.70,4583021.20,0.00 428840.76,4583022.61,0.00 428845.66,4583026.86,0.00 428868.18,4583044.90,0.00" speed="13.89" />
	<edge id="98002400_442540270_30237634" from="442540270" to="30237634" numLanes="3" shape="428920.31,4582837.76,0.00 428926.73,4582831.16,0.00 428955.53,4582801.54,0.00 428968.57,4582788.15,0.00 428985.24,4582771.00,0.00" speed="13.89" />
	<edge id="4752000_8530326065_30237693" from="8530326065" to="30237693" numLanes="2" shape="428688.64,4583059.09,0.00 428690.94,4583060.90,0.00 428695.81,4583065.01,0.00" speed="8.33" />
	<edge id="542781428_30237613_8127267285" from="30237613" to="8127267285" numLanes="4" shape="428986.87,4582579.75,0.00 428999.94,4582592.25,0.00" speed="13.89" />
	<edge id="4744944_30246777_8121505583" from="30246777" to="8121505583" numLanes="3" shape="428507.24,4582110.89,0.00 428520.57,4582123.57,0.00" speed="13.89" />
	<edge id="397481042_1311619340_1311619500" from="1311619340" to="1311619500" numLanes="3" shape="428908.94,4582848.72,0.00 428892.90,4582843.49,0.00 428783.53,4582807.81,0.00 428766.06,4582802.15,0.00" speed="13.89" />
	<edge id="451607872_1362900013_1378894231" from="1362900013" to="1378894231" numLanes="2" shape="428575.13,4582740.42,0.00 428584.16,4582730.28,0.00 428587.54,4582726.50,0.00" speed="8.33" />
	<edge id="327375750_269379908_364829686" from="269379908" to="364829686" numLanes="3" shape="428053.86,4582537.21,0.00 428048.46,4582563.33,0.00" speed="13.89" />
	<edge id="237960949_30247089_30238023" from="30247089" to="30238023" numLanes="3" shape="428980.76,4582391.22,0.00 429000.18,4582371.76,0.00 429028.94,4582342.95,0.00 429076.30,4582295.51,0.00 429106.68,4582265.08,0.00 429154.27,4582217.40,0.00 429171.76,4582199.88,0.00" speed="13.89" />
	<edge id="208606448_5264616257_30558475" from="5264616257" to="30558475" numLanes="3" shape="428157.46,4582415.87,0.00 428093.07,4582368.94,0.00 428091.28,4582367.64,0.00 428084.34,4582362.41,0.00" speed="13.89" />
	<edge id="544243185_1469158191_5261054021" from="1469158191" to="5261054021" numLanes="3" shape="428417.60,4582684.46,0.00 428411.27,4582682.37,0.00 428389.92,4582675.32,0.00 428228.89,4582622.10,0.00" speed="13.89" />
	<edge id="544641229_269379907_5264616257" from="269379907" to="5264616257" numLanes="3" shape="428210.75,4582502.71,0.00 428205.77,4582479.51,0.00 428193.50,4582439.16,0.00 428186.59,4582436.37,0.00 428178.64,4582431.25,0.00 428157.46,4582415.87,0.00" speed="13.89" />
	<edge id="450369479_364829686_1479390211" from="364829686" to="1479390211" numLanes="3" shape="428048.46,4582563.33,0.00 428043.66,4582581.47,0.00 428041.76,4582588.07,0.00 428037.43,4582601.32,0.00" speed="13.89" />
	<edge id="35465964_30237690_30313179" from="30237690" to="30313179" numLanes="2" shape="428545.70,4583223.27,0.00 428538.60,4583216.33,0.00 428520.47,4583198.59,0.00 428482.28,4583160.36,0.00 428475.48,4583154.60,0.00" speed="8.33" />
	<edge id="541430463_30237690_8530326061" from="30237690" to="8530326061" numLanes="3" shape="428545.70,4583223.27,0.00 428551.68,4583217.09,0.00 428590.56,4583176.35,0.00 428596.87,4583169.74,0.00" speed="13.89" />
	<edge id="237506962_7009820327_5249411001" from="7009820327" to="5249411001" numLanes="1" shape="428868.18,4583044.90,0.00 428845.66,4583026.86,0.00 428840.76,4583022.61,0.00 428838.70,4583021.20,0.00" speed="13.89" />
	<edge id="237960947_30237612_8127267297" from="30237612" to="8127267297" numLanes="4" shape="428888.78,4582483.37,0.00 428903.49,4582497.82,0.00" speed="13.89" />
	<edge id="237795735_30237629_30237628" from="30237629" to="30237628" numLanes="1" shape="428603.61,4582390.53,0.00 428592.51,4582379.97,0.00 428583.65,4582372.09,0.00 428524.53,4582315.74,0.00 428506.97,4582298.62,0.00" speed="8.33" />
	<edge id="916766791_1378073789_8514915325" from="1378073789" to="8514915325" numLanes="2" shape="428052.41,4582420.75,0.00 428050.04,4582419.02,0.00" speed="8.33" />
	<edge id="124184228_1297744704_1382873567" from="1297744704" to="1382873567" numLanes="5" shape="428461.22,4582449.46,0.00 428429.44,4582455.84,0.00 428420.72,4582457.59,0.00" speed="8.33" />
	<edge id="4745969_8121505591_30246768" from="8121505591" to="30246768" numLanes="3" shape="428576.78,4582224.70,0.00 428581.63,4582219.56,0.00 428595.07,4582205.33,0.00 428600.20,4582199.89,0.00" speed="8.33" />
	<edge id="237667614_30237634_30237633" from="30237634" to="30237633" numLanes="1" shape="428985.24,4582771.00,0.00 428968.86,4582754.68,0.00 428907.25,4582693.54,0.00 428890.17,4582676.63,0.00" speed="8.33" />
	<edge id="583046483_823781710_4472019526" from="823781710" to="4472019526" numLanes="5" shape="428499.92,4582672.67,0.00 428504.73,4582676.00,0.00 428508.88,4582679.66,0.00" speed="13.89" />
	<edge id="9412963_8127290531_30237630" from="8127290531" to="30237630" numLanes="5" shape="428656.99,4582409.67,0.00 428647.88,4582411.67,0.00 428632.19,4582415.11,0.00 428625.10,4582416.67,0.00" speed="8.33" />
	<edge id="243716771_2494769767_1589583464" from="2494769767" to="1589583464" numLanes="4" shape="428888.09,4582296.32,0.00 428865.39,4582318.80,0.00 428847.79,4582336.23,0.00 428812.65,4582371.71,0.00 428808.00,4582375.82,0.00" speed="13.89" />
	<edge id="4745969_8121505610_30237588" from="8121505610" to="30237588" numLanes="3" shape="428674.75,4582126.09,0.00 428676.43,4582124.72,0.00 428693.52,4582107.87,0.00" speed="8.33" />
	<edge id="450369491_30313256_1479390512" from="30313256" to="1479390512" numLanes="2" shape="428240.50,4582689.20,0.00 428227.83,4582663.48,0.00" speed="13.89" />
	<edge id="43872042_30558477_1382873523" from="30558477" to="1382873523" numLanes="2" shape="428280.82,4582200.36,0.00 428284.86,4582205.03,0.00 428338.98,4582270.07,0.00 428343.43,4582269.33,0.00 428350.46,4582268.18,0.00" speed="8.33" />
	<edge id="237960945_30247089_2494769767" from="30247089" to="2494769767" numLanes="2" shape="428980.76,4582391.22,0.00 428961.73,4582371.62,0.00 428927.61,4582336.49,0.00 428906.99,4582315.26,0.00 428888.09,4582296.32,0.00" speed="13.89" />
	<edge id="123655282_1378073778_8127179055" from="1378073778" to="8127179055" numLanes="2" shape="428213.36,4582541.32,0.00 428215.55,4582529.20,0.00 428215.48,4582521.61,0.00 428213.24,4582512.66,0.00" speed="8.33" />
	<edge id="35465964_8530326060_30237690" from="8530326060" to="30237690" numLanes="2" shape="428553.23,4583231.81,0.00 428550.85,4583229.26,0.00 428545.70,4583223.27,0.00" speed="8.33" />
	<edge id="570380997_30313113_4470657984" from="30313113" to="4470657984" numLanes="5" shape="428784.91,4582381.04,0.00 428773.17,4582383.84,0.00 428771.47,4582384.56,0.00" speed="8.33" />
	<edge id="450280066_4472019526_1469158212" from="4472019526" to="1469158212" numLanes="3" shape="428508.88,4582679.66,0.00 428516.40,4582670.67,0.00" speed="13.89" />
	<edge id="4744966_30237613_8127267284" from="30237613" to="8127267284" numLanes="3" shape="428986.87,4582579.75,0.00 428981.48,4582585.15,0.00 428975.30,4582591.36,0.00" speed="13.89" />
	<edge id="553716786_5241929669_5241929970" from="5241929669" to="5241929970" numLanes="5" shape="428440.75,4582723.18,0.00 428440.13,4582721.68,0.00" speed="13.89" />
	<edge id="26434305_8530318478_30313142" from="8530318478" to="30313142" numLanes="2" shape="428312.88,4582997.62,0.00 428315.48,4583001.36,0.00 428319.59,4583007.25,0.00" speed="8.33" />
	<edge id="910456420_269376045_6663108848" from="269376045" to="6663108848" numLanes="3" shape="427991.48,4582742.12,0.00 427990.10,4582747.17,0.00" speed="13.89" />
	<edge id="4746244_5584069358_1297744704" from="5584069358" to="1297744704" numLanes="1" shape="428480.21,4582470.05,0.00 428470.90,4582461.33,0.00 428461.22,4582449.46,0.00" speed="8.33" />
	<edge id="238862112_269379908_269385954" from="269379908" to="269385954" numLanes="3" shape="428053.86,4582537.21,0.00 428088.37,4582548.64,0.00 428157.23,4582571.13,0.00 428197.08,4582584.14,0.00" speed="13.89" />
	<edge id="918486004_30313143_8530318479" from="30313143" to="8530318479" numLanes="2" shape="428360.60,4582967.85,0.00 428389.78,4582933.75,0.00" speed="8.33" />
	<edge id="124184226_1382873535_1382873523" from="1382873535" to="1382873523" numLanes="1" shape="428381.83,4582261.49,0.00 428377.33,4582262.93,0.00 428359.18,4582266.24,0.00 428353.67,4582267.49,0.00 428350.46,4582268.18,0.00" speed="13.89" />
	<edge id="237549910_1382873567_5247919458" from="1382873567" to="5247919458" numLanes="3" shape="428420.72,4582457.59,0.00 428424.57,4582472.64,0.00 428429.96,4582493.64,0.00 428434.95,4582513.36,0.00" speed="13.89" />
	<edge id="862197868_269383883_3191418776" from="269383883" to="3191418776" numLanes="5" shape="427944.89,4582391.28,0.00 427901.82,4582446.19,0.00 427881.63,4582471.93,0.00 427875.99,4582478.57,0.00" speed="13.89" />
	<edge id="601821914_3191418776_269379908" from="3191418776" to="269379908" numLanes="3" shape="427875.99,4582478.57,0.00 427895.57,4582485.02,0.00 427951.11,4582503.33,0.00 428053.86,4582537.21,0.00" speed="13.89" />
	<edge id="4744944_8121505592_30246768" from="8121505592" to="30246768" numLanes="3" shape="428580.96,4582181.39,0.00 428585.93,4582186.17,0.00 428600.20,4582199.89,0.00" speed="13.89" />
	<edge id="541430463_30237694_442540300" from="30237694" to="442540300" numLanes="3" shape="428782.43,4582975.45,0.00 428791.48,4582966.48,0.00 428853.49,4582904.76,0.00 428891.64,4582866.78,0.00 428898.40,4582860.05,0.00" speed="13.89" />
	<edge id="4752018_8530326064_30237692" from="8530326064" to="30237692" numLanes="1" shape="428660.74,4583120.22,0.00 428659.06,4583118.90,0.00 428650.29,4583112.05,0.00" speed="8.33" />
	<edge id="918486004_30313139_8530318475" from="30313139" to="8530318475" numLanes="2" shape="428162.14,4583209.19,0.00 428173.53,4583191.67,0.00 428178.32,4583185.61,0.00 428209.59,4583145.92,0.00" speed="8.33" />
	<edge id="32326550_289658891_667395973" from="289658891" to="667395973" numLanes="2" shape="428266.81,4582931.57,0.00 428265.62,4582932.97,0.00 428264.80,4582933.93,0.00 428260.73,4582938.70,0.00 428257.28,4582942.74,0.00 428223.40,4582982.41,0.00 428161.83,4583054.47,0.00 428153.72,4583063.97,0.00" speed="8.33" />
	<edge id="4744972_30237873_6874436564" from="30237873" to="6874436564" numLanes="2" shape="429271.05,4582296.35,0.00 429266.14,4582306.54,0.00 429264.96,4582308.45,0.00 429259.58,4582317.10,0.00 429252.25,4582328.11,0.00 429233.02,4582354.42,0.00 429213.44,4582377.87,0.00 429199.77,4582392.77,0.00" speed="13.89" />
	<edge id="544617968_5264394013_1362900013" from="5264394013" to="1362900013" numLanes="3" shape="428599.42,4582748.21,0.00 428584.61,4582743.46,0.00 428575.13,4582740.42,0.00" speed="13.89" />
	<edge id="542842571_30248584_30248585" from="30248584" to="30248585" numLanes="3" shape="428702.31,4582910.76,0.00 428711.88,4582917.89,0.00 428733.90,4582935.83,0.00" speed="13.89" />
	<edge id="257568502_1840720990_5241929669" from="1840720990" to="5241929669" numLanes="5" shape="428473.86,4582749.15,0.00 428466.07,4582747.29,0.00 428458.80,4582743.97,0.00 428452.31,4582739.30,0.00 428446.84,4582733.47,0.00 428442.32,4582726.09,0.00 428440.75,4582723.18,0.00" speed="13.89" />
	<edge id="237549913_364991353_30558433" from="364991353" to="30558433" numLanes="5" shape="428390.89,4582463.68,0.00 428378.26,4582466.41,0.00 428303.11,4582482.69,0.00 428295.15,4582484.41,0.00" speed="13.89" />
	<edge id="133484230_1469158199_269381077" from="1469158199" to="269381077" numLanes="3" shape="428475.79,4582655.22,0.00 428485.63,4582668.01,0.00" speed="13.89" />
	<edge id="295263586_1589583464_30313113" from="1589583464" to="30313113" numLanes="4" shape="428808.00,4582375.82,0.00 428784.91,4582381.04,0.00" speed="8.33" />
	<edge id="173223709_430537453_30313252" from="430537453" to="30313252" numLanes="2" shape="428447.87,4582752.44,0.00 428443.17,4582754.95,0.00 428378.92,4582800.85,0.00 428346.92,4582823.30,0.00 428337.21,4582830.13,0.00" speed="8.33" />
	<edge id="4745969_8121505588_8121505610" from="8121505588" to="8121505610" numLanes="3" shape="428610.21,4582189.94,0.00 428615.59,4582184.59,0.00 428628.57,4582171.68,0.00 428647.22,4582153.53,0.00 428660.15,4582140.27,0.00 428674.75,4582126.09,0.00" speed="8.33" />
	<edge id="4776834_30558439_30558435" from="30558439" to="30558435" numLanes="2" shape="428242.09,4582232.42,0.00 428243.77,4582240.03,0.00 428264.25,4582332.35,0.00 428265.67,4582338.80,0.00 428266.43,4582342.48,0.00" speed="8.33" />
	<edge id="4752018_8530284746_8530364014" from="8530284746" to="8530364014" numLanes="1" shape="429019.12,4583396.34,0.00 429018.05,4583395.51,0.00 429011.70,4583390.64,0.00 429005.80,4583385.98,0.00 429003.72,4583384.52,0.00 428932.00,4583329.44,0.00 428928.81,4583327.00,0.00 428924.42,4583323.63,0.00 428889.80,4583297.72,0.00 428886.92,4583295.82,0.00 428884.11,4583293.45,0.00 428882.24,4583291.89,0.00 428831.65,4583252.67,0.00 428830.94,4583252.11,0.00 428785.27,4583216.36,0.00" speed="8.33" />
	<edge id="4745960_1382873617_30246711" from="1382873617" to="30246711" numLanes="3" shape="428442.66,4582551.59,0.00 428449.53,4582545.24,0.00 428467.45,4582528.66,0.00 428484.74,4582511.81,0.00 428487.57,4582509.06,0.00 428503.68,4582493.59,0.00" speed="8.33" />
	<edge id="133484225_269381078_1382873721" from="269381078" to="1382873721" numLanes="3" shape="428453.56,4582676.63,0.00 428446.80,4582659.80,0.00 428442.23,4582648.97,0.00" speed="13.89" />
	<edge id="4752025_8530326062_30237691" from="8530326062" to="30237691" numLanes="2" shape="428595.80,4583154.53,0.00 428598.31,4583156.58,0.00 428604.59,4583161.64,0.00" speed="8.33" />
	<edge id="35465964_8530318477_30313142" from="8530318477" to="30313142" numLanes="2" shape="428327.91,4583015.20,0.00 428325.81,4583013.20,0.00 428319.59,4583007.25,0.00" speed="8.33" />
	<edge id="35163649_7490465823_30248583" from="7490465823" to="30248583" numLanes="1" shape="428624.16,4582848.58,0.00 428621.54,4582846.27,0.00" speed="13.89" />
	<edge id="4746042_442540269_8127290517" from="442540269" to="8127290517" numLanes="2" shape="428636.72,4582745.37,0.00 428642.59,4582739.16,0.00 428678.44,4582701.26,0.00" speed="13.89" />
	<edge id="237960949_7009893326_30247089" from="7009893326" to="30247089" numLanes="3" shape="428960.36,4582411.66,0.00 428963.17,4582408.85,0.00 428980.76,4582391.22,0.00" speed="13.89" />
	<edge id="918459858_30313132_30313182" from="30313132" to="30313182" numLanes="2" shape="428616.04,4583003.39,0.00 428611.44,4583008.41,0.00 428577.01,4583046.02,0.00 428576.19,4583046.92,0.00 428572.90,4583050.50,0.00 428571.01,4583052.57,0.00" speed="13.89" />
	<edge id="542842571_30248585_5247936116" from="30248585" to="5247936116" numLanes="3" shape="428733.90,4582935.83,0.00 428760.35,4582957.36,0.00" speed="13.89" />
	<edge id="542169700_1479390501_5241929669" from="1479390501" to="5241929669" numLanes="2" shape="428415.71,4582735.17,0.00 428417.52,4582734.02,0.00 428424.51,4582730.56,0.00 428440.75,4582723.18,0.00" speed="8.33" />
	<edge id="237960949_8127267295_7009893326" from="8127267295" to="7009893326" numLanes="3" shape="428901.41,4582470.71,0.00 428903.70,4582468.42,0.00 428960.36,4582411.66,0.00" speed="13.89" />
	<edge id="553586756_30685341_8127290533" from="30685341" to="8127290533" numLanes="3" shape="428696.94,4582485.33,0.00 428678.23,4582467.73,0.00 428640.75,4582431.36,0.00" speed="8.33" />
	<edge id="4752000_30237693_30313130" from="30237693" to="30313130" numLanes="2" shape="428695.81,4583065.01,0.00 428703.11,4583070.36,0.00 428724.12,4583085.38,0.00 428751.15,4583106.81,0.00 428757.20,4583111.60,0.00" speed="8.33" />
	<edge id="542841016_8127267316_30247088" from="8127267316" to="30247088" numLanes="3" shape="428682.93,4582660.05,0.00 428688.18,4582664.99,0.00 428701.17,4582677.24,0.00" speed="8.33" />
	<edge id="283778455_364829704_269382682" from="364829704" to="269382682" numLanes="3" shape="427474.38,4582375.51,0.00 427500.09,4582383.90,0.00 427799.08,4582481.53,0.00 427836.43,4582493.73,0.00 427858.07,4582500.80,0.00" speed="13.89" />
	<edge id="542990495_5249410997_364991353" from="5249410997" to="364991353" numLanes="3" shape="428420.59,4582584.00,0.00 428416.16,4582570.89,0.00 428413.34,4582562.57,0.00 428394.29,4582478.68,0.00 428390.89,4582463.68,0.00" speed="13.89" />