<nodes>
	<node id="1016585903" x="384731.03" y="5819098.64" z="0.00" type="traffic_light" />
	<node id="1016697526" x="384364.97" y="5818778.10" z="0.00" type="priority" />
	<node id="102918588" x="385158.00" y="5819305.91" z="0.00" type="priority" />
	<node id="102918593" x="385122.08" y="5819499.15" z="0.00" type="priority" />
	<node id="102918596" x="385113.20" y="5819653.91" z="0.00" type="priority" />
	<node id="102918598" x="385102.52" y="5819859.91" z="0.00" type="priority" />
	<node id="1076683317" x="386682.79" y="5818563.14" z="0.00" type="priority" />
	<node id="1122075123" x="386495.28" y="5818477.76" z="0.00" type="priority" />
	<node id="1122075158" x="386670.83" y="5818554.45" z="0.00" type="priority" />
	<node id="1145332275" x="385145.59" y="5819260.90" z="0.00" type="priority" />
	<node id="1145332282" x="385146.96" y="5819247.68" z="0.00" type="priority" />
	<node id="1223838352" x="385941.38" y="5819350.32" z="0.00" type="priority" />
	<node id="1226871854" x="384624.71" y="5819716.72" z="0.00" type="priority" />
	<node id="1254415600" x="385796.33" y="5819338.01" z="0.00" type="priority" />
	<node id="1277963434" x="385543.80" y="5818522.28" z="0.00" type="priority" />
	<node id="1277963441" x="385534.38" y="5818440.97" z="0.00" type="priority" />
	<node id="1277963442" x="385535.43" y="5818480.47" z="0.00" type="priority" />
	<node id="1277967223" x="385556.35" y="5818680.16" z="0.00" type="priority" />
	<node id="1277967229" x="385555.48" y="5818628.26" z="0.00" type="priority" />
	<node id="1277967230" x="385558.30" y="5818695.02" z="0.00" type="priority" />
	<node id="1277967231" x="385570.39" y="5818759.22" z="0.00" type="priority" />
	<node id="1293378215" x="384632.47" y="5819745.93" z="0.00" type="priority" />
	<node id="1316823342" x="386317.36" y="5819847.93" z="0.00" type="traffic_light" />
	<node id="1321325636" x="386052.35" y="5819466.74" z="0.00" type="priority" />
	<node id="1321335395" x="385623.14" y="5819206.90" z="0.00" type="priority" />
	<node id="1335664904" x="386672.88" y="5819416.38" z="0.00" type="traffic_light" />
	<node id="1339061963" x="386491.52" y="5818573.67" z="0.00" type="traffic_light" />
	<node id="1339061969" x="386381.05" y="5818601.38" z="0.00" type="traffic_light" />
	<node id="1350487095" x="386531.29" y="5818792.14" z="0.00" type="priority" />
	<node id="1363248023" x="386289.83" y="5819399.24" z="0.00" type="priority" />
	<node id="1404734006" x="386096.71" y="5818548.19" z="0.00" type="priority" />
	<node id="1417401017" x="386781.11" y="5819464.16" z="0.00" type="traffic_light" />
	<node id="1560791805" x="386800.51" y="5818543.02" z="0.00" type="priority" />
	<node id="1560866095" x="386767.55" y="5818675.74" z="0.00" type="priority" />
	<node id="1560866121" x="386457.95" y="5818943.11" z="0.00" type="traffic_light" />
	<node id="1656102229" x="386168.04" y="5819448.36" z="0.00" type="traffic_light" />
	<node id="1702876860" x="386356.08" y="5818918.96" z="0.00" type="priority" />
	<node id="1723927599" x="386157.39" y="5819494.95" z="0.00" type="priority" />
	<node id="1737184227" x="386371.42" y="5818907.56" z="0.00" type="priority" />
	<node id="1737184228" x="386366.13" y="5818911.09" z="0.00" type="priority" />
	<node id="1749584806" x="385991.30" y="5818952.93" z="0.00" type="priority" />
	<node id="1749584807" x="386033.56" y="5818966.31" z="0.00" type="priority" />
	<node id="1749584808" x="386008.49" y="5818968.86" z="0.00" type="priority" />
	<node id="1750917593" x="386788.95" y="5818802.35" z="0.00" type="priority" />
	<node id="1756041738" x="386092.27" y="5818611.41" z="0.00" type="priority" />
	<node id="1757441427" x="385882.53" y="5819524.63" z="0.00" type="priority" />
	<node id="17777144" x="384987.84" y="5819291.39" z="0.00" type="priority" />
	<node id="17777145" x="385267.34" y="5819314.75" z="0.00" type="priority" />
	<node id="1837751357" x="386699.01" y="5819434.12" z="0.00" type="traffic_light" />
	<node id="1840963728" x="386001.82" y="5818807.85" z="0.00" type="priority" />
	<node id="1972845722" x="385688.78" y="5819651.38" z="0.00" type="priority" />
	<node id="197386305" x="386327.47" y="5818286.64" z="0.00" type="priority" />
	<node id="1980757232" x="385845.96" y="5818973.98" z="0.00" type="priority" />
	<node id="1992100022" x="386676.26" y="5819432.15" z="0.00" type="priority" />
	<node id="2021286624" x="385101.15" y="5818574.07" z="0.00" type="priority" />
	<node id="2021286625" x="385094.38" y="5818616.61" z="0.00" type="priority" />
	<node id="20246274" x="386545.17" y="5818875.16" z="0.00" type="priority" />
	<node id="20246275" x="386505.13" y="5818572.17" z="0.00" type="priority" />
	<node id="20246276" x="384785.79" y="5818752.10" z="0.00" type="priority" />
	<node id="20246277" x="384893.87" y="5818450.23" z="0.00" type="priority" />
	<node id="2129678384" x="385265.20" y="5819283.26" z="0.00" type="traffic_light" />
	<node id="21487142" x="386047.10" y="5819393.07" z="0.00" type="priority" />
	<node id="21487143" x="386058.53" y="5819412.38" z="0.00" type="priority" />
	<node id="21487144" x="386126.19" y="5819443.67" z="0.00" type="priority" />
	<node id="21487145" x="386184.84" y="5819409.12" z="0.00" type="priority" />
	<node id="21487146" x="386171.90" y="5819329.09" z="0.00" type="priority" />
	<node id="21487148" x="386175.42" y="5819422.77" z="0.00" type="priority" />
	<node id="21487168" x="386186.38" y="5819349.05" z="0.00" type="priority" />
	<node id="251106770" x="386106.42" y="5819442.84" z="0.00" type="priority" />
	<node id="251106773" x="386046.54" y="5819367.88" z="0.00" type="traffic_light" />
	<node id="251150123" x="386030.52" y="5819379.86" z="0.00" type="traffic_light" />
	<node id="261568494" x="386830.76" y="5818977.03" z="0.00" type="priority" />
	<node id="261568630" x="386721.69" y="5819039.86" z="0.00" type="priority" />
	<node id="2627186932" x="385109.40" y="5818127.24" z="0.00" type="priority" />
	<node id="263702166" x="384846.24" y="5819259.62" z="0.00" type="priority" />
	<node id="263702167" x="384861.19" y="5819102.20" z="0.00" type="priority" />
	<node id="263703306" x="385142.81" y="5819285.86" z="0.00" type="priority" />
	<node id="263703831" x="385018.52" y="5818880.53" z="0.00" type="priority" />
	<node id="263703832" x="385107.99" y="5818876.57" z="0.00" type="priority" />
	<node id="265786533" x="386826.23" y="5819428.99" z="0.00" type="priority" />
	<node id="26662395" x="384743.49" y="5819271.06" z="0.00" type="priority" />
	<node id="26682519" x="385109.26" y="5819498.84" z="0.00" type="priority" />
	<node id="26682640" x="384953.67" y="5818298.58" z="0.00" type="priority" />
	<node id="26704031" x="386178.25" y="5819233.03" z="0.00" type="priority" />
	<node id="26704042" x="386363.98" y="5818912.55" z="0.00" type="priority" />
	<node id="26704043" x="386398.54" y="5818891.27" z="0.00" type="priority" />
	<node id="26704048" x="386161.97" y="5819290.68" z="0.00" type="traffic_light" />
	<node id="26704049" x="386177.38" y="5818950.33" z="0.00" type="traffic_light" />
	<node id="26704051" x="386186.48" y="5818673.92" z="0.00" type="priority" />
	<node id="26704052" x="386145.44" y="5818685.78" z="0.00" type="priority" />
	<node id="26704053" x="386109.97" y="5818685.89" z="0.00" type="priority" />
	<node id="26704054" x="386094.83" y="5818632.91" z="0.00" type="priority" />
	<node id="26704055" x="386087.97" y="5818553.97" z="0.00" type="priority" />
	<node id="26704056" x="386130.11" y="5818543.93" z="0.00" type="priority" />
	<node id="26704057" x="386175.94" y="5818542.08" z="0.00" type="priority" />
	<node id="26704058" x="386091.33" y="5818203.47" z="0.00" type="priority" />
	<node id="26704059" x="386474.74" y="5818306.37" z="0.00" type="priority" />
	<node id="26704061" x="386754.01" y="5818544.46" z="0.00" type="priority" />
	<node id="26704067" x="386814.18" y="5818658.48" z="0.00" type="priority" />
	<node id="26704447" x="386687.07" y="5819433.10" z="0.00" type="priority" />
	<node id="26704448" x="386688.43" y="5819417.71" z="0.00" type="priority" />
	<node id="26704450" x="386748.58" y="5819319.25" z="0.00" type="priority" />
	<node id="26704452" x="386644.54" y="5819082.57" z="0.00" type="priority" />
	<node id="26704482" x="385807.28" y="5819338.98" z="0.00" type="priority" />
	<node id="26704483" x="385870.67" y="5819198.17" z="0.00" type="priority" />
	<node id="26704485" x="385982.46" y="5818971.88" z="0.00" type="priority" />
	<node id="26704492" x="385810.34" y="5818666.93" z="0.00" type="priority" />
	<node id="26704494" x="385828.55" y="5818827.29" z="0.00" type="priority" />
	<node id="26704503" x="385785.19" y="5818452.53" z="0.00" type="priority" />
	<node id="26704512" x="385746.40" y="5818124.91" z="0.00" type="priority" />
	<node id="26704513" x="385627.00" y="5818097.61" z="0.00" type="priority" />
	<node id="26704519" x="385542.16" y="5818480.53" z="0.00" type="priority" />
	<node id="26704521" x="385568.09" y="5818693.83" z="0.00" type="priority" />
	<node id="26704522" x="385582.67" y="5818856.02" z="0.00" type="priority" />
	<node id="26704523" x="385713.07" y="5818840.88" z="0.00" type="priority" />
	<node id="26704524" x="385619.00" y="5819173.24" z="0.00" type="priority" />
	<node id="26704525" x="385595.44" y="5818973.46" z="0.00" type="priority" />
	<node id="26704526" x="385640.38" y="5819327.59" z="0.00" type="priority" />
	<node id="26704545" x="385694.88" y="5818680.50" z="0.00" type="priority" />
	<node id="26704546" x="385983.65" y="5818647.19" z="0.00" type="priority" />
	<node id="26704548" x="385670.28" y="5818466.60" z="0.00" type="priority" />
	<node id="26704570" x="385958.69" y="5818430.38" z="0.00" type="priority" />
	<node id="26704571" x="385943.73" y="5818304.04" z="0.00" type="priority" />
	<node id="26704579" x="386864.33" y="5818957.93" z="0.00" type="priority" />
	<node id="26704580" x="386738.80" y="5818721.05" z="0.00" type="priority" />
	<node id="26704584" x="386088.86" y="5819315.48" z="0.00" type="priority" />
	<node id="26704628" x="386114.76" y="5819443.54" z="0.00" type="priority" />
	<node id="26708460" x="384745.03" y="5819250.09" z="0.00" type="priority" />
	<node id="26727582" x="385822.75" y="5819545.32" z="0.00" type="priority" />
	<node id="26727583" x="385678.53" y="5819624.54" z="0.00" type="priority" />
	<node id="26727584" x="385562.62" y="5819688.29" z="0.00" type="priority" />
	<node id="26727635" x="384651.43" y="5820070.59" z="0.00" type="priority" />
	<node id="26731273" x="384613.13" y="5818551.93" z="0.00" type="priority" />
	<node id="26735757" x="385973.03" y="5818560.19" z="0.00" type="priority" />
	<node id="26736127" x="384769.81" y="5818768.73" z="0.00" type="priority" />
	<node id="26736137" x="384650.70" y="5818895.91" z="0.00" type="priority" />
	<node id="26736139" x="384662.94" y="5818768.63" z="0.00" type="priority" />
	<node id="26736141" x="384502.60" y="5819091.58" z="0.00" type="priority" />
	<node id="26736143" x="384630.53" y="5819096.33" z="0.00" type="priority" />
	<node id="26736154" x="384756.15" y="5819099.15" z="0.00" type="priority" />
	<node id="26736157" x="384772.47" y="5818892.02" z="0.00" type="priority" />
	<node id="26736159" x="384783.48" y="5818768.02" z="0.00" type="priority" />
	<node id="26736160" x="384772.03" y="5818752.77" z="0.00" type="priority" />
	<node id="26736162" x="385080.37" y="5818737.34" z="0.00" type="priority" />
	<node id="26736163" x="384564.50" y="5818761.67" z="0.00" type="priority" />
	<node id="26736165" x="384341.36" y="5818916.64" z="0.00" type="priority" />
	<node id="26736167" x="384615.69" y="5819239.28" z="0.00" type="priority" />
	<node id="26736168" x="385141.91" y="5819304.61" z="0.00" type="priority" />
	<node id="26736170" x="384826.62" y="5818619.92" z="0.00" type="priority" />
	<node id="26736173" x="385250.23" y="5818716.96" z="0.00" type="priority" />
	<node id="26736175" x="384760.35" y="5818892.37" z="0.00" type="priority" />
	<node id="26736176" x="384745.34" y="5819098.95" z="0.00" type="priority" />
	<node id="26736178" x="385016.21" y="5819109.31" z="0.00" type="priority" />
	<node id="26736183" x="385103.63" y="5818556.91" z="0.00" type="priority" />
	<node id="26736187" x="384989.54" y="5819273.30" z="0.00" type="priority" />
	<node id="26736188" x="385266.07" y="5819296.03" z="0.00" type="priority" />
	<node id="26736189" x="385160.26" y="5819124.92" z="0.00" type="priority" />
	<node id="26736192" x="385264.20" y="5818871.45" z="0.00" type="priority" />
	<node id="26736193" x="385382.04" y="5818864.18" z="0.00" type="priority" />
	<node id="26736196" x="384733.83" y="5819249.14" z="0.00" type="priority" />
	<node id="26736197" x="384731.96" y="5819270.17" z="0.00" type="priority" />
	<node id="26736199" x="385462.51" y="5819157.77" z="0.00" type="priority" />
	<node id="26736200" x="385494.68" y="5819315.73" z="0.00" type="priority" />
	<node id="26736201" x="385251.31" y="5818728.88" z="0.00" type="priority" />
	<node id="26736202" x="385372.10" y="5818715.81" z="0.00" type="priority" />
	<node id="26736203" x="384813.77" y="5818616.43" z="0.00" type="priority" />
	<node id="26736219" x="384912.82" y="5818409.51" z="0.00" type="priority" />
	<node id="26744945" x="386838.02" y="5818690.50" z="0.00" type="priority" />
	<node id="26760192" x="386539.96" y="5818861.27" z="0.00" type="priority" />
	<node id="267620336" x="385673.35" y="5819627.28" z="0.00" type="priority" />
	<node id="267620337" x="385665.33" y="5819613.17" z="0.00" type="priority" />
	<node id="267620340" x="385683.13" y="5819640.14" z="0.00" type="priority" />
	<node id="26762956" x="386747.66" y="5818396.19" z="0.00" type="priority" />
	<node id="26762962" x="386828.73" y="5818647.30" z="0.00" type="priority" />
	<node id="26762967" x="386767.21" y="5818542.49" z="0.00" type="priority" />
	<node id="26762974" x="386818.78" y="5818634.25" z="0.00" type="priority" />
	<node id="26762983" x="386770.02" y="5818552.80" z="0.00" type="priority" />
	<node id="26762998" x="386362.90" y="5818589.10" z="0.00" type="priority" />
	<node id="26763008" x="386093.14" y="5818619.11" z="0.00" type="priority" />
	<node id="26763014" x="384863.97" y="5818489.69" z="0.00" type="priority" />
	<node id="26763028" x="384836.45" y="5818556.97" z="0.00" type="priority" />
	<node id="26763041" x="385112.12" y="5818507.43" z="0.00" type="priority" />
	<node id="26763048" x="386805.53" y="5818646.65" z="0.00" type="priority" />
	<node id="26763054" x="386733.17" y="5818391.86" z="0.00" type="priority" />
	<node id="26763067" x="386757.27" y="5818555.17" z="0.00" type="priority" />
	<node id="26763072" x="386506.36" y="5818585.03" z="0.00" type="priority" />
	<node id="26763079" x="384875.32" y="5818493.58" z="0.00" type="priority" />
	<node id="26763083" x="386182.98" y="5818609.45" z="0.00" type="priority" />
	<node id="26763089" x="384848.27" y="5818561.16" z="0.00" type="priority" />
	<node id="26784918" x="384725.11" y="5819504.83" z="0.00" type="priority" />
	<node id="26784919" x="384714.52" y="5819504.99" z="0.00" type="priority" />
	<node id="26784920" x="384707.49" y="5819721.35" z="0.00" type="traffic_light" />
	<node id="26784921" x="384696.51" y="5819720.45" z="0.00" type="traffic_light" />
	<node id="26784922" x="384976.87" y="5819493.49" z="0.00" type="priority" />
	<node id="26784924" x="384850.20" y="5819499.10" z="0.00" type="priority" />
	<node id="26784925" x="385096.49" y="5819747.60" z="0.00" type="priority" />
	<node id="26784926" x="385090.16" y="5819859.49" z="0.00" type="priority" />
	<node id="26784937" x="384821.92" y="5819881.06" z="0.00" type="priority" />
	<node id="26784939" x="384954.78" y="5819931.31" z="0.00" type="priority" />
	<node id="26784942" x="384834.50" y="5819730.66" z="0.00" type="priority" />
	<node id="26784943" x="384964.28" y="5819738.79" z="0.00" type="priority" />
	<node id="26784944" x="384970.02" y="5819643.52" z="0.00" type="priority" />
	<node id="26784945" x="384840.73" y="5819635.03" z="0.00" type="priority" />
	<node id="26784946" x="385099.94" y="5819653.84" z="0.00" type="priority" />
	<node id="26784955" x="384682.54" y="5819911.39" z="0.00" type="priority" />
	<node id="26785753" x="386057.75" y="5819341.06" z="0.00" type="priority" />
	<node id="268050708" x="386680.15" y="5819474.74" z="0.00" type="priority" />
	<node id="26869178" x="385566.30" y="5818678.90" z="0.00" type="priority" />
	<node id="26869179" x="385693.09" y="5818664.86" z="0.00" type="priority" />
	<node id="26869180" x="385808.73" y="5818651.58" z="0.00" type="priority" />
	<node id="26869181" x="385981.76" y="5818632.14" z="0.00" type="priority" />
	<node id="26875020" x="385642.05" y="5819345.93" z="0.00" type="priority" />
	<node id="26875021" x="385850.19" y="5819967.17" z="0.00" type="priority" />
	<node id="26875284" x="385430.92" y="5819979.20" z="0.00" type="priority" />
	<node id="26903227" x="386349.20" y="5819917.75" z="0.00" type="priority" />
	<node id="26908924" x="386304.24" y="5819855.90" z="0.00" type="priority" />
	<node id="26938178" x="386149.32" y="5819462.90" z="0.00" type="traffic_light" />
	<node id="26938187" x="386156.29" y="5819591.47" z="0.00" type="priority" />
	<node id="26938189" x="385355.25" y="5819800.90" z="0.00" type="priority" />
	<node id="26938190" x="385666.76" y="5819593.51" z="0.00" type="traffic_light" />
	<node id="26938191" x="385658.69" y="5819576.02" z="0.00" type="priority" />
	<node id="26938192" x="385672.63" y="5819608.83" z="0.00" type="priority" />
	<node id="26938193" x="385554.71" y="5819674.49" z="0.00" type="priority" />
	<node id="26938195" x="385359.41" y="5819782.53" z="0.00" type="priority" />
	<node id="26938196" x="385816.39" y="5819531.11" z="0.00" type="priority" />
	<node id="26938199" x="385992.23" y="5819476.68" z="0.00" type="priority" />
	<node id="26938207" x="386147.34" y="5819273.95" z="0.00" type="priority" />
	<node id="26938209" x="386143.43" y="5819314.80" z="0.00" type="traffic_light" />
	<node id="26938212" x="386074.20" y="5819428.45" z="0.00" type="traffic_light" />
	<node id="26938214" x="386148.56" y="5819438.72" z="0.00" type="traffic_light" />
	<node id="26938217" x="386191.86" y="5819384.56" z="0.00" type="traffic_light" />
	<node id="26938219" x="386020.55" y="5819357.66" z="0.00" type="traffic_light" />
	<node id="26938226" x="386052.98" y="5819444.29" z="0.00" type="traffic_light" />
	<node id="26938227" x="386076.84" y="5819451.44" z="0.00" type="traffic_light" />
	<node id="26977832" x="386729.28" y="5819522.96" z="0.00" type="priority" />
	<node id="272256206" x="386453.56" y="5819398.47" z="0.00" type="traffic_light" />
	<node id="27409001" x="384978.88" y="5819442.38" z="0.00" type="priority" />
	<node id="27409148" x="384600.59" y="5819509.90" z="0.00" type="priority" />
	<node id="27409159" x="384690.09" y="5819809.82" z="0.00" type="priority" />
	<node id="27409512" x="384732.45" y="5819423.36" z="0.00" type="priority" />
	<node id="27409541" x="385284.94" y="5819504.19" z="0.00" type="priority" />
	<node id="27409576" x="385453.05" y="5819509.36" z="0.00" type="priority" />
	<node id="27409601" x="385545.03" y="5819932.22" z="0.00" type="priority" />
	<node id="27409693" x="386242.11" y="5819744.55" z="0.00" type="priority" />
	<node id="27409694" x="385762.47" y="5819795.53" z="0.00" type="priority" />
	<node id="27409724" x="386079.98" y="5819834.73" z="0.00" type="priority" />
	<node id="27409746" x="385994.24" y="5819675.37" z="0.00" type="priority" />
	<node id="27409751" x="385877.55" y="5819736.72" z="0.00" type="priority" />
	<node id="27409755" x="385966.76" y="5819900.65" z="0.00" type="priority" />
	<node id="27537747" x="386707.86" y="5819434.89" z="0.00" type="priority" />
	<node id="27537748" x="386759.30" y="5819439.31" z="0.00" type="priority" />
	<node id="27537749" x="386783.75" y="5819425.34" z="0.00" type="priority" />
	<node id="27537750" x="386709.53" y="5819419.41" z="0.00" type="priority" />
	<node id="2778536888" x="386122.71" y="5818544.87" z="0.00" type="priority" />
	<node id="2778536903" x="386172.53" y="5818610.66" z="0.00" type="priority" />
	<node id="2784054037" x="386713.14" y="5819044.82" z="0.00" type="priority" />
	<node id="287596320" x="384795.35" y="5818707.10" z="0.00" type="priority" />
	<node id="28961684" x="384847.95" y="5819432.63" z="0.00" type="priority" />
	<node id="292298701" x="386373.79" y="5818997.83" z="0.00" type="priority" />
	<node id="292298702" x="386331.63" y="5818934.44" z="0.00" type="priority" />
	<node id="292298705" x="386439.85" y="5818940.32" z="0.00" type="priority" />
	<node id="3021603099" x="384453.01" y="5819225.43" z="0.00" type="priority" />
	<node id="3066762533" x="385491.75" y="5818688.20" z="0.00" type="priority" />
	<node id="3066762534" x="385628.50" y="5818686.96" z="0.00" type="priority" />
	<node id="3066797047" x="385194.11" y="5818723.61" z="0.00" type="priority" />
	<node id="3066797048" x="385312.10" y="5818722.43" z="0.00" type="priority" />
	<node id="3066874439" x="385608.98" y="5819643.99" z="0.00" type="priority" />
	<node id="3066874440" x="385596.13" y="5819669.83" z="0.00" type="priority" />
	<node id="3066874441" x="385287.94" y="5819821.79" z="0.00" type="priority" />
	<node id="3066874442" x="385183.06" y="5819897.64" z="0.00" type="priority" />
	<node id="3100460451" x="385795.85" y="5818547.35" z="0.00" type="priority" />
	<node id="3100460453" x="385972.59" y="5818556.33" z="0.00" type="priority" />
	<node id="312778949" x="385499.92" y="5819334.16" z="0.00" type="priority" />
	<node id="312778950" x="385485.06" y="5819458.65" z="0.00" type="priority" />
	<node id="313020966" x="386937.99" y="5819249.79" z="0.00" type="priority" />
	<node id="313030437" x="384352.78" y="5818910.03" z="0.00" type="traffic_light" />
	<node id="313154028" x="384663.52" y="5818758.69" z="0.00" type="priority" />
	<node id="3242567376" x="386827.40" y="5818676.97" z="0.00" type="traffic_light" />
	<node id="324753730" x="386448.33" y="5818951.03" z="0.00" type="priority" />
	<node id="3275571361" x="386249.73" y="5819395.94" z="0.00" type="priority" />
	<node id="332095915" x="385030.98" y="5818634.03" z="0.00" type="priority" />
	<node id="332095922" x="385092.83" y="5818629.06" z="0.00" type="priority" />
	<node id="3342452758" x="384696.75" y="5818757.43" z="0.00" type="priority" />
	<node id="3346178031" x="384843.74" y="5818765.35" z="0.00" type="priority" />
	<node id="3346178032" x="384765.93" y="5818818.10" z="0.00" type="priority" />
	<node id="341364246" x="385754.17" y="5819187.75" z="0.00" type="priority" />
	<node id="341364250" x="385731.49" y="5818975.24" z="0.00" type="priority" />
	<node id="341364254" x="386125.86" y="5818501.29" z="0.00" type="traffic_light" />
	<node id="341364291" x="386621.10" y="5818559.99" z="0.00" type="priority" />
	<node id="341364294" x="386651.66" y="5818568.07" z="0.00" type="priority" />
	<node id="3425667209" x="386963.39" y="5819440.83" z="0.00" type="priority" />
	<node id="3425667210" x="386836.14" y="5819445.88" z="0.00" type="priority" />
	<node id="364309950" x="386201.16" y="5819165.95" z="0.00" type="priority" />
	<node id="364309968" x="386169.03" y="5819609.61" z="0.00" type="priority" />
	<node id="364334123" x="386430.31" y="5818947.76" z="0.00" type="traffic_light" />
	<node id="368020746" x="386649.00" y="5819091.56" z="0.00" type="traffic_light" />
	<node id="3684182884" x="386775.02" y="5819424.71" z="0.00" type="traffic_light" />
	<node id="3684182887" x="386799.31" y="5819442.73" z="0.00" type="traffic_light" />
	<node id="370624772" x="385799.08" y="5818574.19" z="0.00" type="priority" />
	<node id="370624773" x="385684.44" y="5818582.01" z="0.00" type="priority" />
	<node id="370624774" x="385551.55" y="5818594.98" z="0.00" type="priority" />
	<node id="3791061780" x="386135.21" y="5819288.04" z="0.00" type="traffic_light" />
	<node id="3791061796" x="386224.17" y="5819393.84" z="0.00" type="traffic_light" />
	<node id="3791061803" x="386694.66" y="5819399.78" z="0.00" type="traffic_light" />
	<node id="3791061808" x="386762.12" y="5819423.65" z="0.00" type="priority" />
	<node id="3791061868" x="386684.61" y="5819453.52" z="0.00" type="traffic_light" />
	<node id="3804695404" x="386214.17" y="5819372.28" z="0.00" type="traffic_light" />
	<node id="3886445946" x="386059.23" y="5818803.43" z="0.00" type="priority" />
	<node id="3900580935" x="385426.58" y="5819310.24" z="0.00" type="traffic_light" />
	<node id="3900580941" x="385425.23" y="5819327.72" z="0.00" type="traffic_light" />
	<node id="3935677404" x="386807.28" y="5818990.35" z="0.00" type="priority" />
	<node id="3935677405" x="386793.46" y="5818998.18" z="0.00" type="priority" />
	<node id="3935677406" x="386770.71" y="5818695.06" z="0.00" type="priority" />
	<node id="3951898354" x="386364.52" y="5818603.43" z="0.00" type="priority" />
	<node id="400912982" x="386383.66" y="5819006.72" z="0.00" type="priority" />
	<node id="4016811113" x="386184.44" y="5818622.83" z="0.00" type="priority" />
	<node id="408194196" x="386668.29" y="5819431.48" z="0.00" type="priority" />
	<node id="415838099" x="386452.45" y="5819412.61" z="0.00" type="traffic_light" />
	<node id="4215237791" x="384992.75" y="5818631.90" z="0.00" type="priority" />
	<node id="4277479604" x="385656.27" y="5819547.07" z="0.00" type="priority" />
	<node id="4277479605" x="385690.46" y="5819617.78" z="0.00" type="traffic_light" />
	<node id="4277479606" x="385654.14" y="5819619.43" z="0.00" type="traffic_light" />
	<node id="4361531348" x="384844.41" y="5818623.68" z="0.00" type="traffic_light" />
	<node id="4382361795" x="386760.73" y="5818521.23" z="0.00" type="traffic_light" />
	<node id="4382361808" x="386734.02" y="5818547.02" z="0.00" type="traffic_light" />
	<node id="4382361809" x="386785.83" y="5818548.46" z="0.00" type="traffic_light" />
	<node id="4382361814" x="386765.84" y="5818572.98" z="0.00" type="traffic_light" />
	<node id="4382361819" x="386806.17" y="5818618.74" z="0.00" type="traffic_light" />
	<node id="4382361824" x="386789.54" y="5818658.89" z="0.00" type="traffic_light" />
	<node id="439657962" x="386896.10" y="5818574.27" z="0.00" type="priority" />
	<node id="4404286888" x="386361.37" y="5818574.92" z="0.00" type="traffic_light" />
	<node id="4404288496" x="386181.44" y="5818595.95" z="0.00" type="traffic_light" />
	<node id="4404288499" x="386508.27" y="5818597.61" z="0.00" type="traffic_light" />
	<node id="4404288503" x="385980.13" y="5818618.77" z="0.00" type="traffic_light" />
	<node id="4404288504" x="386365.93" y="5818614.67" z="0.00" type="traffic_light" />
	<node id="4404288507" x="385807.15" y="5818638.11" z="0.00" type="traffic_light" />
	<node id="4404288513" x="385985.05" y="5818659.59" z="0.00" type="traffic_light" />
	<node id="4404288515" x="385811.78" y="5818679.12" z="0.00" type="traffic_light" />
	<node id="4404288518" x="384788.91" y="5818737.44" z="0.00" type="traffic_light" />
	<node id="4404288519" x="384757.89" y="5818753.54" z="0.00" type="traffic_light" />
	<node id="4404288520" x="384799.48" y="5818767.31" z="0.00" type="traffic_light" />
	<node id="4404288522" x="384768.71" y="5818782.22" z="0.00" type="traffic_light" />
	<node id="4489578373" x="385324.21" y="5819801.83" z="0.00" type="traffic_light" />
	<node id="4489578374" x="385336.21" y="5819811.24" z="0.00" type="traffic_light" />
	<node id="4489578382" x="386375.50" y="5819016.78" z="0.00" type="traffic_light" />
	<node id="4489578383" x="386361.43" y="5819013.84" z="0.00" type="traffic_light" />
	<node id="4489578384" x="386626.08" y="5818571.42" z="0.00" type="traffic_light" />
	<node id="4489578385" x="386616.64" y="5818560.49" z="0.00" type="traffic_light" />
	<node id="4504087203" x="386220.62" y="5819182.94" z="0.00" type="priority" />
	<node id="4573411515" x="386717.92" y="5819347.69" z="0.00" type="priority" />
	<node id="4598380591" x="385268.26" y="5819328.27" z="0.00" type="traffic_light" />
	<node id="4598380609" x="385276.35" y="5819315.61" z="0.00" type="traffic_light" />
	<node id="4782446440" x="385814.98" y="5819322.78" z="0.00" type="traffic_light" />
	<node id="4782446441" x="385794.19" y="5819337.86" z="0.00" type="traffic_light" />
	<node id="4782446442" x="385807.04" y="5819359.86" z="0.00" type="traffic_light" />
	<node id="4782446443" x="385788.75" y="5819376.32" z="0.00" type="traffic_light" />
	<node id="4825405699" x="386741.61" y="5818462.53" z="0.00" type="priority" />
	<node id="4853814386" x="385632.49" y="5819291.49" z="0.00" type="priority" />
	<node id="4911322403" x="386217.05" y="5819374.10" z="0.00" type="priority" />
	<node id="4932289021" x="385005.25" y="5819292.78" z="0.00" type="traffic_light" />
	<node id="4932289022" x="384986.71" y="5819310.40" z="0.00" type="traffic_light" />
	<node id="4932289023" x="384970.72" y="5819271.50" z="0.00" type="traffic_light" />
	<node id="4932289024" x="384992.62" y="5819254.34" z="0.00" type="traffic_light" />
	<node id="5156519028" x="385681.65" y="5819638.50" z="0.00" type="traffic_light" />
	<node id="5182106094" x="385768.59" y="5818311.38" z="0.00" type="traffic_light" />
	<node id="5182106096" x="385771.61" y="5818337.75" z="0.00" type="traffic_light" />
	<node id="5194290241" x="386782.56" y="5819441.31" z="0.00" type="priority" />
	<node id="5233789061" x="384951.76" y="5819106.22" z="0.00" type="priority" />
	<node id="5313824950" x="386215.59" y="5819393.92" z="0.00" type="priority" />
	<node id="5496911273" x="386476.51" y="5818321.19" z="0.00" type="traffic_light" />
	<node id="5496911289" x="386093.09" y="5818216.98" z="0.00" type="traffic_light" />
	<node id="5496919143" x="386735.55" y="5818411.85" z="0.00" type="traffic_light" />
	<node id="5654153738" x="386731.18" y="5818709.79" z="0.00" type="traffic_light" />
	<node id="5759471849" x="384891.67" y="5818428.16" z="0.00" type="traffic_light" />