<nodes>
	<node id="3180637405" x="385676.5302" y="5818515.7331" z="0.0000" type="priority" />
	<node id="1230340508" x="385096.4571" y="5819118.0337" z="0.0000" type="priority" />
	<node id="3804637954" x="386133.9226" y="5819442.9418" z="0.0000" type="priority" />
	<node id="2312689859" x="385528.5852" y="5819318.6946" z="0.0000" type="priority" />
	<node id="5191133806" x="385042.6432" y="5818634.2328" z="0.0000" type="priority" />
	<node id="26760192" x="386539.9618" y="5818861.2744" z="0.0000" type="priority" />
	<node id="7498134551" x="385273.6069" y="5819217.7406" z="0.0000" type="priority" />
	<node id="3242567376" x="386827.4009" y="5818676.9685" z="0.0000" type="traffic_light" />
	<node id="803558760" x="386660.2143" y="5818783.8891" z="0.0000" type="priority" />
	<node id="26704492" x="385810.3431" y="5818666.9255" z="0.0000" type="priority" />
	<node id="26704494" x="385828.5500" y="5818827.2904" z="0.0000" type="priority" />
	<node id="663065746" x="386605.8829" y="5818573.3363" z="0.0000" type="priority" />
	<node id="4932288720" x="385000.3607" y="5819292.3850" z="0.0000" type="priority" />
	<node id="4932288718" x="384975.7790" y="5819271.9855" z="0.0000" type="priority" />
	<node id="4932288719" x="384991.9886" y="5819258.2290" z="0.0000" type="priority" />
	<node id="4932288715" x="385002.0552" y="5819274.3287" z="0.0000" type="priority" />
	<node id="4932288717" x="384973.6125" y="5819290.1753" z="0.0000" type="priority" />
	<node id="26704482" x="385807.2807" y="5819338.9754" z="0.0000" type="priority" />
	<node id="26704485" x="385982.4572" y="5818971.8762" z="0.0000" type="priority" />
	<node id="26704483" x="385870.6720" y="5819198.1749" z="0.0000" type="priority" />
	<node id="4215498691" x="386795.2932" y="5818654.4750" z="0.0000" type="priority" />
	<node id="26744945" x="386838.0209" y="5818690.4997" z="0.0000" type="priority" />
	<node id="3180637425" x="385792.2350" y="5818516.0840" z="0.0000" type="priority" />
	<node id="1440831298" x="386067.0625" y="5819637.0448" z="0.0000" type="priority" />
	<node id="5654153737" x="386741.4803" y="5818718.7920" z="0.0000" type="priority" />
	<node id="5654153738" x="386731.1754" y="5818709.7939" z="0.0000" type="traffic_light" />
	<node id="26704031" x="386178.2534" y="5819233.0273" z="0.0000" type="priority" />
	<node id="1560791805" x="386800.5068" y="5818543.0193" z="0.0000" type="priority" />
	<node id="4940561302" x="386533.7994" y="5818812.1424" z="0.0000" type="priority" />
	<node id="931752738" x="386414.3185" y="5819862.0118" z="0.0000" type="priority" />
	<node id="512445220" x="385327.4069" y="5819800.0609" z="0.0000" type="priority" />
	<node id="851142379" x="386260.3904" y="5819777.6614" z="0.0000" type="priority" />
	<node id="851142373" x="386287.5462" y="5819827.7079" z="0.0000" type="priority" />
	<node id="512445218" x="385333.8021" y="5819812.5416" z="0.0000" type="priority" />
	<node id="6965000740" x="385064.4791" y="5818739.5155" z="0.0000" type="priority" />
	<node id="4404288522" x="384768.7081" y="5818782.2172" z="0.0000" type="traffic_light" />
	<node id="4404288520" x="384799.4771" y="5818767.3053" z="0.0000" type="traffic_light" />
	<node id="931752751" x="386366.6077" y="5819905.5830" z="0.0000" type="priority" />
	<node id="26704052" x="386145.4399" y="5818685.7792" z="0.0000" type="priority" />
	<node id="26704053" x="386109.9703" y="5818685.8913" z="0.0000" type="priority" />
	<node id="1016697522" x="384420.8598" y="5818776.2442" z="0.0000" type="priority" />
	<node id="3626024454" x="385986.4080" y="5819207.8656" z="0.0000" type="priority" />
	<node id="26704051" x="386186.4762" y="5818673.9203" z="0.0000" type="priority" />
	<node id="26704056" x="386130.1112" y="5818543.9304" z="0.0000" type="priority" />
	<node id="26704057" x="386175.9442" y="5818542.0755" z="0.0000" type="priority" />
	<node id="1016697526" x="384364.9654" y="5818778.0972" z="0.0000" type="priority" />
	<node id="26704054" x="386094.8254" y="5818632.9067" z="0.0000" type="priority" />
	<node id="2739330882" x="385944.6719" y="5818974.8032" z="0.0000" type="priority" />
	<node id="26704055" x="386087.9722" y="5818553.9681" z="0.0000" type="priority" />
	<node id="680182734" x="386779.1451" y="5818784.9007" z="0.0000" type="priority" />
	<node id="26704058" x="386091.3280" y="5818203.4688" z="0.0000" type="priority" />
	<node id="26704059" x="386474.7352" y="5818306.3747" z="0.0000" type="priority" />
	<node id="4277479610" x="385463.9300" y="5819741.7602" z="0.0000" type="priority" />
	<node id="3066874441" x="385287.9436" y="5819821.7946" z="0.0000" type="priority" />
	<node id="3066874440" x="385596.1257" y="5819669.8325" z="0.0000" type="priority" />
	<node id="3066874442" x="385183.0570" y="5819897.6421" z="0.0000" type="priority" />
	<node id="1118812405" x="385547.1340" y="5818554.2745" z="0.0000" type="priority" />
	<node id="4782446443" x="385788.7541" y="5819376.3191" z="0.0000" type="traffic_light" />
	<node id="4782446441" x="385794.1851" y="5819337.8563" z="0.0000" type="traffic_light" />
	<node id="4782446442" x="385807.0410" y="5819359.8573" z="0.0000" type="traffic_light" />
	<node id="26704042" x="386363.9804" y="5818912.5467" z="0.0000" type="priority" />
	<node id="4782446448" x="385285.7932" y="5819297.7222" z="0.0000" type="priority" />
	<node id="3066874439" x="385608.9779" y="5819643.9933" z="0.0000" type="priority" />
	<node id="4277479607" x="385456.4786" y="5819728.8144" z="0.0000" type="priority" />
	<node id="3804653145" x="386020.6631" y="5819378.0730" z="0.0000" type="priority" />
	<node id="4277479606" x="385654.1415" y="5819619.4252" z="0.0000" type="traffic_light" />
	<node id="26704043" x="386398.5365" y="5818891.2698" z="0.0000" type="priority" />
	<node id="3804748494" x="386659.1758" y="5819415.4707" z="0.0000" type="priority" />
	<node id="3804748493" x="386480.1091" y="5819400.7440" z="0.0000" type="priority" />
	<node id="26704049" x="386177.3819" y="5818950.3290" z="0.0000" type="traffic_light" />
	<node id="1277849255" x="385735.4107" y="5819353.9159" z="0.0000" type="priority" />
	<node id="1277849256" x="385743.3057" y="5819334.3690" z="0.0000" type="priority" />
	<node id="4782446440" x="385814.9758" y="5819322.7828" z="0.0000" type="traffic_light" />
	<node id="4277479605" x="385690.4580" y="5819617.7763" z="0.0000" type="traffic_light" />
	<node id="26704048" x="386161.9744" y="5819290.6815" z="0.0000" type="traffic_light" />
	<node id="263703306" x="385142.8073" y="5819285.8605" z="0.0000" type="priority" />
	<node id="4277479604" x="385656.2746" y="5819547.0652" z="0.0000" type="priority" />
	<node id="4404288508" x="385971.5919" y="5818633.3694" z="0.0000" type="priority" />
	<node id="4404288507" x="385807.1523" y="5818638.1115" z="0.0000" type="traffic_light" />
	<node id="4404288504" x="386365.9262" y="5818614.6717" z="0.0000" type="traffic_light" />
	<node id="4404288503" x="385980.1339" y="5818618.7709" z="0.0000" type="traffic_light" />
	<node id="4782446449" x="385284.6291" y="5819316.1443" z="0.0000" type="priority" />
	<node id="731078628" x="386556.3079" y="5819575.6135" z="0.0000" type="priority" />
	<node id="1137678948" x="384689.1119" y="5819942.8199" z="0.0000" type="priority" />
	<node id="527147009" x="386471.0566" y="5819803.3982" z="0.0000" type="priority" />
	<node id="4782446450" x="385247.3248" y="5819313.1120" z="0.0000" type="priority" />
	<node id="4782446451" x="385248.6229" y="5819294.6201" z="0.0000" type="priority" />
	<node id="4404288519" x="384757.8890" y="5818753.5385" z="0.0000" type="traffic_light" />
	<node id="1592542086" x="385288.0562" y="5818497.1031" z="0.0000" type="priority" />
	<node id="4404288518" x="384788.9086" y="5818737.4411" z="0.0000" type="traffic_light" />
	<node id="1592542089" x="385202.1121" y="5818502.7880" z="0.0000" type="priority" />
	<node id="4404288515" x="385811.7816" y="5818679.1217" z="0.0000" type="traffic_light" />
	<node id="4404288514" x="385824.2162" y="5818665.2001" z="0.0000" type="priority" />
	<node id="4404288513" x="385985.0492" y="5818659.5855" z="0.0000" type="traffic_light" />
	<node id="1137678955" x="384687.3772" y="5819957.3719" z="0.0000" type="priority" />
	<node id="4404288512" x="385794.0964" y="5818653.0491" z="0.0000" type="priority" />
	<node id="4404288511" x="385994.0935" y="5818645.8545" z="0.0000" type="priority" />
	<node id="791127364" x="384762.2481" y="5819029.5140" z="0.0000" type="priority" />
	<node id="2791258279" x="386686.2229" y="5819440.0833" z="0.0000" type="priority" />
	<node id="4551434759" x="385098.5893" y="5819684.2158" z="0.0000" type="priority" />
	<node id="3961002550" x="385932.5814" y="5819495.3876" z="0.0000" type="priority" />
	<node id="3710445099" x="384802.9418" y="5818685.9328" z="0.0000" type="priority" />
	<node id="26704061" x="386754.0124" y="5818544.4609" z="0.0000" type="priority" />
	<node id="4551434765" x="385069.7277" y="5819651.4418" z="0.0000" type="priority" />
	<node id="26704067" x="386814.1811" y="5818658.4788" z="0.0000" type="priority" />
	<node id="3961002548" x="385934.1075" y="5819370.8292" z="0.0000" type="priority" />
	<node id="680182744" x="386783.7576" y="5818792.3389" z="0.0000" type="priority" />
	<node id="1206719484" x="385752.1332" y="5818173.3848" z="0.0000" type="priority" />
	<node id="1145332282" x="385146.9568" y="5819247.6828" z="0.0000" type="priority" />
	<node id="5426466231" x="386107.6451" y="5818617.4079" z="0.0000" type="priority" />
	<node id="3900580941" x="385425.2305" y="5819327.7209" z="0.0000" type="traffic_light" />
	<node id="1023768347" x="385663.4636" y="5819581.9397" z="0.0000" type="priority" />
	<node id="1145332275" x="385145.5897" y="5819260.9016" z="0.0000" type="priority" />
	<node id="7741191234" x="384557.1966" y="5819093.6100" z="0.0000" type="priority" />
	<node id="931624462" x="384694.8283" y="5819747.0300" z="0.0000" type="traffic_light" />
	<node id="3768751785" x="386841.3956" y="5818616.6990" z="0.0000" type="priority" />
	<node id="26903227" x="386349.1991" y="5819917.7493" z="0.0000" type="priority" />
	<node id="5479064922" x="384897.6968" y="5818885.1918" z="0.0000" type="priority" />
	<node id="1723927614" x="386159.8795" y="5819596.6843" z="0.0000" type="priority" />
	<node id="4906133086" x="386146.2793" y="5818692.6813" z="0.0000" type="priority" />
	<node id="412367094" x="386832.9428" y="5818893.0902" z="0.0000" type="priority" />
	<node id="4906133088" x="386131.8287" y="5818687.0859" z="0.0000" type="priority" />
	<node id="6211151203" x="386562.0566" y="5818862.1649" z="0.0000" type="traffic_light" />
	<node id="6211151202" x="386235.0159" y="5819186.6514" z="0.0000" type="priority" />
	<node id="26908924" x="386304.2422" y="5819855.8971" z="0.0000" type="priority" />
	<node id="26908925" x="386659.2455" y="5819503.8699" z="0.0000" type="priority" />
	<node id="3804754272" x="386798.7549" y="5819426.6540" z="0.0000" type="priority" />
	<node id="3804653135" x="386067.7522" y="5819457.4111" z="0.0000" type="priority" />
	<node id="7919047066" x="386420.2509" y="5819766.8299" z="0.0000" type="priority" />
	<node id="837792468" x="386744.3509" y="5818485.4612" z="0.0000" type="priority" />
	<node id="287593081" x="385090.2226" y="5818553.1168" z="0.0000" type="priority" />
	<node id="3900580935" x="385426.5801" y="5819310.2405" z="0.0000" type="traffic_light" />
	<node id="26682519" x="385109.2585" y="5819498.8381" z="0.0000" type="priority" />
	<node id="26908926" x="386674.8777" y="5819484.9578" z="0.0000" type="priority" />
	<node id="26682516" x="385133.6586" y="5819415.7286" z="0.0000" type="priority" />
	<node id="1321324555" x="386159.6587" y="5819224.0451" z="0.0000" type="priority" />
	<node id="3070527368" x="385601.9589" y="5819768.1464" z="0.0000" type="priority" />
	<node id="3791061892" x="386182.5913" y="5819633.9028" z="0.0000" type="priority" />
	<node id="3791061893" x="386015.6506" y="5819715.5475" z="0.0000" type="priority" />
	<node id="26704447" x="386687.0661" y="5819433.0976" z="0.0000" type="priority" />
	<node id="26704448" x="386688.4278" y="5819417.7095" z="0.0000" type="priority" />
	<node id="1749481154" x="386781.1835" y="5818788.1920" z="0.0000" type="priority" />
	<node id="3791061894" x="386024.8426" y="5819732.7601" z="0.0000" type="priority" />
	<node id="3791061895" x="386189.5387" y="5819773.6652" z="0.0000" type="priority" />
	<node id="667945033" x="386026.6124" y="5819378.7358" z="0.0000" type="priority" />
	<node id="667945032" x="386028.5439" y="5819358.1597" z="0.0000" type="priority" />
	<node id="26704452" x="386644.5413" y="5819082.5706" z="0.0000" type="priority" />
	<node id="26704450" x="386748.5848" y="5819319.2490" z="0.0000" type="priority" />
	<node id="26704451" x="386737.5517" y="5819282.2254" z="0.0000" type="priority" />
	<node id="1228164111" x="385115.7436" y="5819614.1069" z="0.0000" type="priority" />
	<node id="1316823342" x="386317.3560" y="5819847.9255" z="0.0000" type="traffic_light" />
	<node id="738442015" x="386459.4216" y="5819713.5199" z="0.0000" type="priority" />
	<node id="445398114" x="386471.6883" y="5819695.0413" z="0.0000" type="priority" />
	<node id="1227841106" x="384675.3847" y="5819506.2404" z="0.0000" type="priority" />
	<node id="26727582" x="385822.7496" y="5819545.3186" z="0.0000" type="priority" />
	<node id="26727583" x="385678.5316" y="5819624.5423" z="0.0000" type="priority" />
	<node id="26727584" x="385562.6190" y="5819688.2866" z="0.0000" type="priority" />
	<node id="851142346" x="386256.7763" y="5819771.1241" z="0.0000" type="priority" />
	<node id="660204068" x="385413.1947" y="5819926.7942" z="0.0000" type="priority" />
	<node id="1723927610" x="386153.4705" y="5819574.7663" z="0.0000" type="priority" />
	<node id="7737382874" x="385682.2281" y="5818563.4953" z="0.0000" type="priority" />
	<node id="1560792257" x="386546.9659" y="5818879.9074" z="0.0000" type="priority" />
	<node id="1723927603" x="386156.9828" y="5819507.9721" z="0.0000" type="priority" />
	<node id="1723927605" x="386154.2149" y="5819538.1489" z="0.0000" type="priority" />
	<node id="1227903974" x="385204.1252" y="5819500.9206" z="0.0000" type="priority" />
	<node id="26875020" x="385642.0474" y="5819345.9346" z="0.0000" type="priority" />
	<node id="26875021" x="385850.1920" y="5819967.1670" z="0.0000" type="priority" />
	<node id="408194194" x="386473.5857" y="5819400.2053" z="0.0000" type="priority" />
	<node id="408194196" x="386668.2907" y="5819431.4844" z="0.0000" type="priority" />
	<node id="3783010932" x="385919.5681" y="5819348.5222" z="0.0000" type="priority" />
	<node id="408194192" x="386472.1930" y="5819414.2254" z="0.0000" type="priority" />
	<node id="6146138103" x="384746.1743" y="5819087.4357" z="0.0000" type="priority" />
	<node id="6146138102" x="384744.1060" y="5819115.2491" z="0.0000" type="traffic_light" />
	<node id="6146138101" x="384769.8687" y="5819099.7647" z="0.0000" type="traffic_light" />
	<node id="6146138100" x="384735.5019" y="5819098.7370" z="0.0000" type="priority" />
	<node id="5426466232" x="386169.2079" y="5818611.0476" z="0.0000" type="priority" />
	<node id="6146138107" x="384765.5257" y="5819099.5775" z="0.0000" type="priority" />
	<node id="6146138106" x="384755.2364" y="5819111.5820" z="0.0000" type="priority" />
	<node id="6146138105" x="384744.4432" y="5819110.8233" z="0.0000" type="priority" />
	<node id="6146138104" x="384757.1153" y="5819088.1242" z="0.0000" type="priority" />
	<node id="26875019" x="385781.8562" y="5819452.6070" z="0.0000" type="priority" />
	<node id="26875017" x="386018.2440" y="5819464.6387" z="0.0000" type="priority" />
	<node id="1723962806" x="386690.4970" y="5819409.7163" z="0.0000" type="priority" />
	<node id="610219734" x="385108.7969" y="5819748.0521" z="0.0000" type="priority" />
	<node id="610219733" x="385138.7546" y="5819454.7022" z="0.0000" type="priority" />
	<node id="610219732" x="385131.2064" y="5819428.7059" z="0.0000" type="priority" />
	<node id="610219731" x="385110.3540" y="5819487.3616" z="0.0000" type="priority" />
	<node id="1560792361" x="386166.8606" y="5819281.8213" z="0.0000" type="priority" />
	<node id="5220259733" x="385257.8143" y="5818801.7082" z="0.0000" type="priority" />
	<node id="1277848879" x="384477.8669" y="5819227.6046" z="0.0000" type="priority" />
	<node id="26784955" x="384682.5406" y="5819911.3929" z="0.0000" type="priority" />
	<node id="26784954" x="384692.0471" y="5819912.6491" z="0.0000" type="priority" />
	<node id="610219730" x="385126.0671" y="5819488.3507" z="0.0000" type="priority" />
	<node id="4910641012" x="386447.6852" y="5818592.2674" z="0.0000" type="priority" />
	<node id="3791061868" x="386684.6056" y="5819453.5188" z="0.0000" type="traffic_light" />
	<node id="1019315211" x="385463.4846" y="5819512.7990" z="0.0000" type="priority" />
	<node id="1339061968" x="386352.1459" y="5818590.5431" z="0.0000" type="priority" />
	<node id="1339061969" x="386381.0456" y="5818601.3793" z="0.0000" type="traffic_light" />
	<node id="1837631937" x="386658.7665" y="5819112.5430" z="0.0000" type="priority" />
	<node id="27409600" x="385602.3527" y="5819772.2212" z="0.0000" type="priority" />
	<node id="27409601" x="385545.0335" y="5819932.2246" z="0.0000" type="priority" />
	<node id="643370025" x="386560.7702" y="5818863.2073" z="0.0000" type="priority" />
	<node id="5220259742" x="385182.7300" y="5818736.8543" z="0.0000" type="priority" />
	<node id="1339061961" x="386518.4512" y="5818571.0316" z="0.0000" type="priority" />
	<node id="4910641020" x="386380.9821" y="5818740.3694" z="0.0000" type="priority" />
	<node id="1339061963" x="386491.5206" y="5818573.6696" z="0.0000" type="traffic_light" />
	<node id="1339061964" x="386520.1206" y="5818583.3005" z="0.0000" type="priority" />
	<node id="1339061965" x="386375.2923" y="5818587.8252" z="0.0000" type="priority" />
	<node id="313036101" x="384500.6921" y="5818901.2227" z="0.0000" type="priority" />
	<node id="1339061967" x="386496.9211" y="5818586.0746" z="0.0000" type="priority" />
	<node id="1918766268" x="386708.0817" y="5819048.0508" z="0.0000" type="priority" />
	<node id="6146202361" x="384349.8137" y="5818911.7481" z="0.0000" type="priority" />
	<node id="8244973792" x="385661.1527" y="5819579.2116" z="0.0000" type="priority" />
	<node id="2129678384" x="385265.2015" y="5819283.2594" z="0.0000" type="traffic_light" />
	<node id="3791061877" x="386781.3110" y="5819460.0293" z="0.0000" type="priority" />
	<node id="1932523062" x="385886.7877" y="5819345.8360" z="0.0000" type="priority" />
	<node id="1137693339" x="384702.1772" y="5819789.5669" z="0.0000" type="priority" />
	<node id="5542698822" x="386257.8576" y="5818380.6089" z="0.0000" type="priority" />
	<node id="3791061881" x="385956.3147" y="5819489.4935" z="0.0000" type="priority" />
	<node id="715739502" x="386332.4415" y="5818314.8367" z="0.0000" type="priority" />
	<node id="5784619551" x="385639.1666" y="5819313.8529" z="0.0000" type="priority" />
	<node id="5784619550" x="385629.8815" y="5819313.3908" z="0.0000" type="priority" />
	<node id="5784619552" x="385622.7422" y="5819344.3489" z="0.0000" type="priority" />
	<node id="8134156257" x="385480.2075" y="5819232.3029" z="0.0000" type="priority" />
	<node id="6427824849" x="385955.4433" y="5818974.9197" z="0.0000" type="priority" />
	<node id="1560792323" x="386201.8729" y="5819225.9687" z="0.0000" type="priority" />
	<node id="1560792325" x="386193.6550" y="5819237.5436" z="0.0000" type="priority" />
	<node id="3713441052" x="386094.0763" y="5818728.0354" z="0.0000" type="priority" />
	<node id="26784919" x="384714.5222" y="5819504.9853" z="0.0000" type="priority" />
	<node id="26784918" x="384725.1096" y="5819504.8251" z="0.0000" type="priority" />
	<node id="5020407100" x="386163.6961" y="5818952.1938" z="0.0000" type="priority" />
	<node id="5991251297" x="386305.8140" y="5818834.8316" z="0.0000" type="priority" />
	<node id="5845538957" x="385267.3001" y="5818727.1838" z="0.0000" type="traffic_light" />
	<node id="5845538956" x="385252.1846" y="5818738.4766" z="0.0000" type="priority" />
	<node id="5845538959" x="385262.8364" y="5818727.6555" z="0.0000" type="priority" />
	<node id="5845538958" x="385261.4614" y="5818715.6249" z="0.0000" type="priority" />
	<node id="5845538953" x="385245.5359" y="5818706.8283" z="0.0000" type="priority" />
	<node id="5845538955" x="385252.5509" y="5818742.5187" z="0.0000" type="traffic_light" />
	<node id="5845538954" x="385243.6766" y="5818702.8212" z="0.0000" type="traffic_light" />
	<node id="5845538960" x="385231.9988" y="5818719.1192" z="0.0000" type="traffic_light" />
	<node id="26977832" x="386729.2815" y="5819522.9590" z="0.0000" type="priority" />
	<node id="5845538962" x="385238.7329" y="5818730.3455" z="0.0000" type="priority" />
	<node id="5845538961" x="385236.3597" y="5818718.6053" z="0.0000" type="priority" />
	<node id="415841127" x="386775.6412" y="5819477.9095" z="0.0000" type="priority" />
	<node id="3713441047" x="386103.7864" y="5818707.0114" z="0.0000" type="priority" />
	<node id="1019315246" x="385396.4457" y="5819508.0351" z="0.0000" type="priority" />
	<node id="5784619546" x="385638.7337" y="5819308.9778" z="0.0000" type="traffic_light" />
	<node id="5784619545" x="385616.4830" y="5819325.7665" z="0.0000" type="traffic_light" />
	<node id="5784619548" x="385643.2753" y="5819359.5601" z="0.0000" type="priority" />
	<node id="5784619547" x="385635.9981" y="5819364.2591" z="0.0000" type="traffic_light" />
	<node id="5020407104" x="385987.2003" y="5818960.9493" z="0.0000" type="priority" />
	<node id="5784619549" x="385635.3930" y="5819359.2767" z="0.0000" type="priority" />
	<node id="5020407108" x="385993.1850" y="5818970.7029" z="0.0000" type="priority" />
	<node id="26938222" x="386034.1727" y="5819382.1098" z="0.0000" type="priority" />
	<node id="26938223" x="386016.2797" y="5819377.5964" z="0.0000" type="priority" />
	<node id="251106772" x="386139.0931" y="5819448.6638" z="0.0000" type="priority" />
	<node id="26938224" x="386060.2547" y="5819428.7082" z="0.0000" type="priority" />
	<node id="251106773" x="386046.5376" y="5819367.8787" z="0.0000" type="traffic_light" />
	<node id="251106774" x="386107.0297" y="5819306.8257" z="0.0000" type="priority" />
	<node id="7978839587" x="385534.8849" y="5819638.5466" z="0.0000" type="priority" />
	<node id="26938226" x="386052.9792" y="5819444.2898" z="0.0000" type="traffic_light" />
	<node id="26938227" x="386076.8397" y="5819451.4354" z="0.0000" type="traffic_light" />
	<node id="26938228" x="386037.2691" y="5819474.9347" z="0.0000" type="priority" />
	<node id="2306717848" x="385147.6192" y="5818272.5116" z="0.0000" type="priority" />
	<node id="26938220" x="386033.8145" y="5819357.9592" z="0.0000" type="priority" />
	<node id="26938221" x="386045.9856" y="5819372.7545" z="0.0000" type="priority" />
	<node id="251106770" x="386106.4239" y="5819442.8355" z="0.0000" type="priority" />
	<node id="7004908584" x="384960.8778" y="5819802.8247" z="0.0000" type="priority" />
	<node id="1137693327" x="384704.1157" y="5819764.9169" z="0.0000" type="priority" />
	<node id="26938219" x="386020.5547" y="5819357.6556" z="0.0000" type="traffic_light" />
	<node id="26784922" x="384976.8724" y="5819493.4875" z="0.0000" type="priority" />
	<node id="26784921" x="384696.5108" y="5819720.4497" z="0.0000" type="traffic_light" />
	<node id="5826974891" x="385395.6808" y="5819778.8553" z="0.0000" type="priority" />
	<node id="26784920" x="384707.4893" y="5819721.3486" z="0.0000" type="traffic_light" />
	<node id="1560792301" x="386364.0695" y="5819010.6491" z="0.0000" type="priority" />
	<node id="26784926" x="385090.1555" y="5819859.4925" z="0.0000" type="priority" />
	<node id="26784925" x="385096.4916" y="5819747.5952" z="0.0000" type="priority" />
	<node id="26784924" x="384850.1953" y="5819499.1011" z="0.0000" type="priority" />
	<node id="5826424616" x="385787.1586" y="5819782.7866" z="0.0000" type="priority" />
	<node id="26784939" x="384954.7784" y="5819931.3088" z="0.0000" type="priority" />
	<node id="3180634750" x="385913.9529" y="5818436.0979" z="0.0000" type="priority" />
	<node id="5826424614" x="385740.9909" y="5819753.5060" z="0.0000" type="priority" />
	<node id="3713593678" x="386088.9528" y="5818576.8690" z="0.0000" type="priority" />
	<node id="1756041738" x="386092.2750" y="5818611.4111" z="0.0000" type="priority" />
	<node id="26784937" x="384821.9180" y="5819881.0608" z="0.0000" type="priority" />
	<node id="265786533" x="386826.2303" y="5819428.9903" z="0.0000" type="priority" />
	<node id="28961684" x="384847.9471" y="5819432.6299" z="0.0000" type="priority" />
	<node id="4361470496" x="386087.0728" y="5818557.0492" z="0.0000" type="priority" />
	<node id="4361470493" x="386091.9356" y="5818550.6600" z="0.0000" type="priority" />
	<node id="3180634749" x="385930.8248" y="5818433.9358" z="0.0000" type="priority" />
	<node id="26784941" x="384824.6103" y="5819840.2350" z="0.0000" type="priority" />
	<node id="26784940" x="384958.4191" y="5819850.4664" z="0.0000" type="priority" />
	<node id="3713593667" x="386177.9910" y="5818565.5859" z="0.0000" type="priority" />
	<node id="26784945" x="384840.7292" y="5819635.0313" z="0.0000" type="priority" />
	<node id="26784944" x="384970.0151" y="5819643.5223" z="0.0000" type="priority" />
	<node id="26784943" x="384964.2755" y="5819738.7915" z="0.0000" type="priority" />
	<node id="26784942" x="384834.5048" y="5819730.6572" z="0.0000" type="priority" />
	<node id="26784946" x="385099.9406" y="5819653.8377" z="0.0000" type="priority" />
	<node id="313154345" x="384791.0154" y="5818680.6269" z="0.0000" type="priority" />
	<node id="7666696842" x="384916.4614" y="5819104.7430" z="0.0000" type="priority" />
	<node id="7666696845" x="384921.1378" y="5819104.9558" z="0.0000" type="priority" />
	<node id="1023689427" x="386063.5214" y="5819418.5391" z="0.0000" type="priority" />
	<node id="27409693" x="386242.1132" y="5819744.5459" z="0.0000" type="priority" />
	<node id="27409694" x="385762.4663" y="5819795.5254" z="0.0000" type="priority" />
	<node id="410846037" x="386536.2826" y="5819419.4841" z="0.0000" type="priority" />
	<node id="3275571361" x="386249.7273" y="5819395.9395" z="0.0000" type="priority" />
	<node id="5845538106" x="384576.8733" y="5818771.0864" z="0.0000" type="priority" />
	<node id="3425667209" x="386963.3931" y="5819440.8349" z="0.0000" type="priority" />
	<node id="5845538105" x="384578.5022" y="5818761.2553" z="0.0000" type="priority" />
	<node id="3757714665" x="386776.6625" y="5819312.3683" z="0.0000" type="priority" />
	<node id="4506009549" x="385141.4536" y="5818320.9186" z="0.0000" type="priority" />
	<node id="3425667210" x="386836.1388" y="5819445.8762" z="0.0000" type="priority" />
	<node id="4506009558" x="385048.0230" y="5819296.4409" z="0.0000" type="priority" />
	<node id="4382361795" x="386760.7344" y="5818521.2261" z="0.0000" type="traffic_light" />
	<node id="4506009557" x="385050.2243" y="5819278.2727" z="0.0000" type="priority" />
	<node id="4506009553" x="385140.9698" y="5818325.1920" z="0.0000" type="priority" />
	<node id="6886526782" x="385069.6754" y="5819115.3012" z="0.0000" type="priority" />
	<node id="5204516928" x="386153.8869" y="5819580.9995" z="0.0000" type="priority" />
	<node id="5845538101" x="384547.2558" y="5818772.0179" z="0.0000" type="priority" />
	<node id="654381284" x="386136.9960" y="5819285.9985" z="0.0000" type="priority" />
	<node id="5845538104" x="384581.1485" y="5818770.9746" z="0.0000" type="traffic_light" />
	<node id="3957757600" x="386754.9252" y="5818471.7186" z="0.0000" type="priority" />
	<node id="6271239850" x="386349.2924" y="5818463.4163" z="0.0000" type="priority" />
	<node id="6271239851" x="386356.5904" y="5818530.0929" z="0.0000" type="priority" />
	<node id="5845549226" x="385807.7717" y="5818643.4162" z="0.0000" type="priority" />
	<node id="5845549227" x="385827.0277" y="5818664.9231" z="0.0000" type="traffic_light" />
	<node id="5845549228" x="385811.1740" y="5818674.0281" z="0.0000" type="priority" />
	<node id="654381287" x="386189.1843" y="5819243.5453" z="0.0000" type="priority" />
	<node id="5845549225" x="385790.3924" y="5818653.4916" z="0.0000" type="traffic_light" />
	<node id="3100460451" x="385795.8496" y="5818547.3475" z="0.0000" type="priority" />
	<node id="3100460453" x="385972.5899" y="5818556.3291" z="0.0000" type="priority" />
	<node id="1023689465" x="386225.7447" y="5819377.9794" z="0.0000" type="priority" />
	<node id="3791061806" x="386059.1414" y="5819433.0963" z="0.0000" type="priority" />
	<node id="3791061803" x="386694.6598" y="5819399.7829" z="0.0000" type="traffic_light" />
	<node id="4489578382" x="386375.4963" y="5819016.7827" z="0.0000" type="traffic_light" />
	<node id="4489578383" x="386361.4343" y="5819013.8372" z="0.0000" type="traffic_light" />
	<node id="4489578384" x="386626.0806" y="5818571.4223" z="0.0000" type="traffic_light" />
	<node id="3791061808" x="386762.1191" y="5819423.6504" z="0.0000" type="priority" />
	<node id="4489578385" x="386616.6403" y="5818560.4905" z="0.0000" type="traffic_light" />
	<node id="3804695404" x="386214.1657" y="5819372.2837" z="0.0000" type="traffic_light" />
	<node id="4382361798" x="386750.5164" y="5818527.7607" z="0.0000" type="priority" />
	<node id="4217340735" x="386760.6096" y="5818703.2825" z="0.0000" type="priority" />
	<node id="4382361797" x="386761.5315" y="5818526.3377" z="0.0000" type="priority" />
	<node id="278594787" x="386294.7846" y="5818820.0982" z="0.0000" type="priority" />
	<node id="719610511" x="386619.7225" y="5818816.3404" z="0.0000" type="priority" />
	<node id="4504087203" x="386220.6173" y="5819182.9352" z="0.0000" type="priority" />
	<node id="4504087205" x="386206.2529" y="5819171.0503" z="0.0000" type="priority" />