<?xml version="1.0" encoding="UTF-8"?>

<!-- generated on Mon Dec 28 14:14:05 2020 by Eclipse SUMO netconvert Version 1.4.0
<configuration xmlns:xsi="http://www.w3.org/2001/XMLSchema-instance" xsi:noNamespaceSchemaLocation="http://sumo.dlr.de/xsd/netconvertConfiguration.xsd">

    <input>
        <node-files value="/home/parallels/Development/mosaic-nes-applications/scenarios/ernst-reuter/sumo/ernst-reuter.nod.xml"/>
        <edge-files value="/home/parallels/Development/mosaic-nes-applications/scenarios/ernst-reuter/sumo/ernst-reuter.edg.xml"/>
        <connection-files value="/home/parallels/Development/mosaic-nes-applications/scenarios/ernst-reuter/sumo/ernst-reuter.con.xml"/>
    </input>

    <output>
        <output-file value="/home/parallels/Development/mosaic-nes-applications/scenarios/ernst-reuter/sumo/ernst-reuter.net.xml"/>
    </output>

    <report>
        <aggregate-warnings value="5"/>
    </report>

</configuration>
-->

<net version="1.3" junctionCornerDetail="5" limitTurnSpeed="5.50" xmlns:xsi="http://www.w3.org/2001/XMLSchema-instance" xsi:noNamespaceSchemaLocation="http://sumo.dlr.de/xsd/net_file.xsd">

    <location netOffset="-384341.36,-5818097.61" convBoundary="0.00,0.00,2682.13,1972.98" origBoundary="384341.36,5818097.61,387023.49,5820070.59" projParameter="!"/>

    <edge id=":1016585903_0" function="internal">
        <lane id=":1016585903_0_0" index="0" speed="8.33" length="0.30" shape="389.78,1002.64 389.48,1002.63"/>
    </edge>
    <edge id=":1016585903_1" function="internal">
        <lane id=":1016585903_1_0" index="0" speed="8.33" length="0.30" shape="389.55,999.43 389.85,999.44"/>
    </edge>
    <edge id=":1016697522_0" function="internal">
        <lane id=":1016697522_0_0" index="0" speed="8.33" length="0.10" shape="79.55,680.24 79.55,680.24"/>
    </edge>
    <edge id=":1019315211_0" function="internal">
        <lane id=":1019315211_0_0" index="0" speed="8.33" length="0.58" shape="1121.43,1416.75 1121.31,1416.63 1121.21,1416.56 1121.11,1416.50 1120.95,1416.43"/>
    </edge>
    <edge id=":1019315211_1" function="internal">
        <lane id=":1019315211_1_0" index="0" speed="8.33" length="1.74" shape="1122.22,1413.49 1122.69,1413.70 1123.00,1413.87 1123.28,1414.09 1123.66,1414.45"/>
    </edge>
    <edge id=":1019315246_0" function="internal">
        <lane id=":1019315246_0_0" index="0" speed="8.33" length="0.31" shape="1055.19,1412.03 1054.88,1412.02"/>
    </edge>
    <edge id=":1019315246_1" function="internal">
        <lane id=":1019315246_1_0" index="0" speed="8.33" length="0.27" shape="1055.00,1408.82 1055.27,1408.83"/>
    </edge>
    <edge id=":1019315421_0" function="internal">
        <lane id=":1019315421_0_0" index="0" speed="8.33" length="0.29" shape="987.32,1409.59 987.03,1409.58"/>
    </edge>
    <edge id=":1019315421_1" function="internal">
        <lane id=":1019315421_1_0" index="0" speed="8.33" length="0.31" shape="987.13,1406.38 987.44,1406.40"/>
    </edge>
    <edge id=":1019315512_0" function="internal">
        <lane id=":1019315512_0_0" index="0" speed="8.33" length="0.21" shape="1128.66,1426.11 1128.63,1426.05 1128.61,1426.02 1128.59,1425.98 1128.56,1425.92"/>
    </edge>
    <edge id=":1019315512_1" function="internal">
        <lane id=":1019315512_1_0" index="0" speed="8.33" length="0.64" shape="1131.27,1424.23 1131.37,1424.39 1131.43,1424.50 1131.49,1424.62 1131.57,1424.79"/>
    </edge>
    <edge id=":1020013262_0" function="internal">
        <lane id=":1020013262_0_0" index="0" speed="8.33" length="0.29" shape="1335.14,749.08 1334.85,749.11"/>
    </edge>
    <edge id=":1020013262_1" function="internal">
        <lane id=":1020013262_1_0" index="0" speed="8.33" length="0.31" shape="1334.48,745.93 1334.79,745.90"/>
    </edge>
    <edge id=":1023499910_0" function="internal">
        <lane id=":1023499910_0_0" index="0" speed="13.89" length="0.29" shape="1633.82,1407.72 1633.52,1407.82"/>
        <lane id=":1023499910_0_1" index="1" speed="13.89" length="0.29" shape="1632.84,1404.68 1632.58,1404.76"/>
    </edge>
    <edge id=":1023499920_0" function="internal">
        <lane id=":1023499920_0_0" index="0" speed="13.89" length="0.16" shape="1514.11,1413.88 1514.31,1413.81"/>
        <lane id=":1023499920_0_1" index="1" speed="13.89" length="0.16" shape="1515.17,1416.89 1515.24,1416.87"/>
    </edge>
    <edge id=":1023499938_0" function="internal">
        <lane id=":1023499938_0_0" index="0" speed="13.89" length="0.29" shape="1592.59,1392.53 1592.89,1392.46"/>
        <lane id=":1023499938_0_1" index="1" speed="13.89" length="0.29" shape="1593.32,1395.65 1593.59,1395.59"/>
    </edge>
    <edge id=":1023499941_0" function="internal">
        <lane id=":1023499941_0_0" index="0" speed="13.89" length="0.28" shape="1591.75,1419.15 1591.44,1419.23"/>
        <lane id=":1023499941_0_1" index="1" speed="13.89" length="0.28" shape="1590.97,1416.05 1590.72,1416.11"/>
    </edge>
    <edge id=":1023499957_0" function="internal">
        <lane id=":1023499957_0_0" index="0" speed="13.89" length="0.14" shape="1491.85,1421.73 1492.01,1421.67"/>
        <lane id=":1023499957_0_1" index="1" speed="13.89" length="0.14" shape="1493.02,1424.71 1493.07,1424.69"/>
    </edge>
    <edge id=":1023499966_0" function="internal">
        <lane id=":1023499966_0_0" index="0" speed="13.89" length="3.22" shape="1677.02,1391.89 1673.93,1393.13"/>
        <lane id=":1023499966_0_1" index="1" speed="13.89" length="3.22" shape="1675.64,1389.01 1672.75,1390.16"/>
    </edge>
    <edge id=":1023499981_0" function="internal">
        <lane id=":1023499981_0_0" index="0" speed="13.89" length="3.21" shape="1554.54,1401.58 1557.72,1400.63"/>
        <lane id=":1023499981_0_1" index="1" speed="13.89" length="3.21" shape="1555.47,1404.64 1558.45,1403.74"/>
    </edge>
    <edge id=":1023499985_0" function="internal">
        <lane id=":1023499985_0_0" index="0" speed="13.89" length="0.28" shape="1507.95,1445.70 1507.86,1445.73"/>
        <lane id=":1023499985_0_1" index="1" speed="13.89" length="0.28" shape="1506.93,1442.66 1506.67,1442.76"/>
        <lane id=":1023499985_0_2" index="2" speed="13.89" length="0.28" shape="1505.91,1439.63 1505.48,1439.79"/>
    </edge>
    <edge id=":1023500004_0" function="internal">
        <lane id=":1023500004_0_0" index="0" speed="13.89" length="0.34" shape="1693.71,1349.47 1693.92,1349.36"/>
        <lane id=":1023500004_0_1" index="1" speed="13.89" length="0.34" shape="1695.15,1352.33 1695.46,1352.17"/>
        <lane id=":1023500004_0_2" index="2" speed="13.89" length="0.34" shape="1696.59,1355.19 1696.99,1354.98"/>
    </edge>
    <edge id=":1023689180_0" function="internal">
        <lane id=":1023689180_0_0" index="0" speed="13.89" length="0.75" shape="1736.13,1207.32 1736.48,1207.12 1736.72,1206.99 1736.97,1206.87 1737.33,1206.70"/>
        <lane id=":1023689180_0_1" index="1" speed="13.89" length="0.75" shape="1737.73,1210.09 1738.00,1209.93 1738.19,1209.83 1738.38,1209.74 1738.66,1209.61"/>
        <lane id=":1023689180_0_2" index="2" speed="13.89" length="0.75" shape="1739.33,1212.86 1739.53,1212.75 1739.66,1212.68 1739.80,1212.61 1740.00,1212.52"/>
        <lane id=":1023689180_0_3" index="3" speed="13.89" length="0.75" shape="1740.93,1215.63 1741.05,1215.56 1741.13,1215.52 1741.21,1215.48 1741.33,1215.42"/>
        <lane id=":1023689180_0_4" index="4" speed="13.89" length="0.75" shape="1742.53,1218.40 1742.57,1218.38 1742.60,1218.37 1742.63,1218.35 1742.67,1218.33"/>
    </edge>
    <edge id=":1023689190_0" function="internal">
        <lane id=":1023689190_0_0" index="0" speed="13.89" length="0.28" shape="1794.84,1207.19 1795.30,1207.29"/>
        <lane id=":1023689190_0_1" index="1" speed="13.89" length="0.28" shape="1794.26,1210.33 1794.53,1210.39"/>
        <lane id=":1023689190_0_2" index="2" speed="13.89" length="0.28" shape="1793.68,1213.48 1793.77,1213.50"/>
    </edge>
    <edge id=":1023689199_0" function="internal">
        <lane id=":1023689199_0_0" index="0" speed="13.89" length="0.63" shape="1746.94,1353.14 1746.86,1353.17 1746.80,1353.19 1746.74,1353.22 1746.66,1353.26"/>
        <lane id=":1023689199_0_1" index="1" speed="13.89" length="0.63" shape="1746.01,1350.08 1745.74,1350.16 1745.56,1350.23 1745.38,1350.31 1745.14,1350.44"/>
    </edge>
    <edge id=":1023689210_0" function="internal">
        <lane id=":1023689210_0_0" index="0" speed="13.89" length="3.49" shape="1861.62,1272.57 1861.86,1276.43"/>
        <lane id=":1023689210_0_1" index="1" speed="13.89" length="3.49" shape="1858.45,1272.99 1858.66,1276.60"/>
        <lane id=":1023689210_0_2" index="2" speed="13.89" length="3.49" shape="1855.27,1273.40 1855.47,1276.77"/>
        <lane id=":1023689210_0_3" index="3" speed="13.89" length="3.49" shape="1852.10,1273.82 1852.27,1276.94"/>
    </edge>
    <edge id=":1023689218_0" function="internal">
        <lane id=":1023689218_0_0" index="0" speed="13.89" length="3.69" shape="1805.30,1353.58 1804.13,1354.00 1803.33,1354.30 1802.51,1354.57 1801.30,1354.86"/>
        <lane id=":1023689218_0_1" index="1" speed="13.89" length="3.69" shape="1804.28,1350.55 1803.20,1350.94 1802.46,1351.22 1801.72,1351.46 1800.61,1351.74"/>
        <lane id=":1023689218_0_2" index="2" speed="13.89" length="3.69" shape="1803.25,1347.52 1802.27,1347.87 1801.60,1348.13 1800.92,1348.36 1799.91,1348.62"/>
        <lane id=":1023689218_0_3" index="3" speed="13.89" length="3.69" shape="1802.23,1344.49 1801.34,1344.81 1800.74,1345.05 1800.13,1345.26 1799.22,1345.49"/>
    </edge>
    <edge id=":1023689227_0" function="internal">
        <lane id=":1023689227_0_0" index="0" speed="13.89" length="3.83" shape="1717.84,1219.82 1718.82,1218.92 1719.49,1218.30 1720.18,1217.70 1721.24,1216.91"/>
        <lane id=":1023689227_0_1" index="1" speed="13.89" length="3.83" shape="1719.97,1222.22 1720.88,1221.38 1721.49,1220.80 1722.13,1220.24 1723.11,1219.50"/>
        <lane id=":1023689227_0_2" index="2" speed="13.89" length="3.83" shape="1722.09,1224.61 1722.93,1223.84 1723.49,1223.30 1724.07,1222.79 1724.98,1222.10"/>
        <lane id=":1023689227_0_3" index="3" speed="13.89" length="3.83" shape="1724.22,1227.00 1724.98,1226.29 1725.49,1225.80 1726.02,1225.33 1726.85,1224.70"/>
        <lane id=":1023689227_0_4" index="4" speed="13.89" length="3.83" shape="1726.34,1229.39 1727.03,1228.75 1727.49,1228.30 1727.97,1227.87 1728.71,1227.30"/>
    </edge>
    <edge id=":1023689271_0" function="internal">
        <lane id=":1023689271_0_0" index="0" speed="13.89" length="0.55" shape="1863.53,1258.49 1863.57,1258.53 1863.60,1258.55 1863.63,1258.58 1863.67,1258.61"/>
        <lane id=":1023689271_0_1" index="1" speed="13.89" length="0.55" shape="1861.28,1260.77 1861.40,1260.88 1861.48,1260.96 1861.57,1261.03 1861.69,1261.13"/>
        <lane id=":1023689271_0_2" index="2" speed="13.89" length="0.55" shape="1859.04,1263.04 1859.23,1263.23 1859.36,1263.36 1859.51,1263.48 1859.72,1263.64"/>
    </edge>
    <edge id=":1023689289_0" function="internal">
        <lane id=":1023689289_0_0" index="0" speed="13.89" length="0.67" shape="1838.79,1174.62 1838.76,1174.68 1838.74,1174.72 1838.72,1174.76 1838.69,1174.82"/>
        <lane id=":1023689289_0_1" index="1" speed="13.89" length="0.67" shape="1836.11,1172.88 1836.00,1173.05 1835.93,1173.17 1835.87,1173.29 1835.78,1173.47"/>
        <lane id=":1023689289_0_2" index="2" speed="13.89" length="0.67" shape="1833.42,1171.15 1833.24,1171.42 1833.13,1171.62 1833.02,1171.82 1832.88,1172.12"/>
    </edge>
    <edge id=":1023689373_0" function="internal">
        <lane id=":1023689373_0_0" index="0" speed="13.89" length="3.55" shape="1745.82,1350.92 1742.28,1349.15"/>
        <lane id=":1023689373_0_1" index="1" speed="13.89" length="3.55" shape="1747.04,1347.96 1743.75,1346.30"/>
        <lane id=":1023689373_0_2" index="2" speed="13.89" length="3.55" shape="1748.25,1345.00 1745.21,1343.46"/>
        <lane id=":1023689373_0_3" index="3" speed="13.89" length="3.55" shape="1749.47,1342.04 1746.67,1340.61"/>
    </edge>
    <edge id=":1023689427_0" function="internal">
        <lane id=":1023689427_0_0" index="0" speed="13.89" length="3.50" shape="1714.04,1328.64 1711.57,1325.65"/>
        <lane id=":1023689427_0_1" index="1" speed="13.89" length="3.50" shape="1716.36,1326.44 1714.06,1323.64"/>
        <lane id=":1023689427_0_2" index="2" speed="13.89" length="3.50" shape="1718.68,1324.24 1716.54,1321.62"/>
        <lane id=":1023689427_0_3" index="3" speed="13.89" length="3.50" shape="1721.00,1322.03 1719.03,1319.61"/>
    </edge>
    <edge id=":1023689465_0" function="internal">
        <lane id=":1023689465_0_0" index="0" speed="13.89" length="0.63" shape="1886.51,1272.63 1886.57,1272.65 1886.61,1272.67 1886.65,1272.68 1886.71,1272.69"/>
        <lane id=":1023689465_0_1" index="1" speed="13.89" length="0.63" shape="1885.42,1275.64 1885.60,1275.71 1885.72,1275.75 1885.84,1275.78 1886.03,1275.82"/>
        <lane id=":1023689465_0_2" index="2" speed="13.89" length="0.63" shape="1884.33,1278.65 1884.63,1278.76 1884.83,1278.82 1885.04,1278.88 1885.34,1278.94"/>
    </edge>
    <edge id=":1023689485_0" function="internal">
        <lane id=":1023689485_0_0" index="0" speed="13.89" length="1.34" shape="1700.63,1244.68 1700.71,1244.62 1700.76,1244.58 1700.81,1244.53 1700.87,1244.45"/>
        <lane id=":1023689485_0_1" index="1" speed="13.89" length="1.34" shape="1702.59,1247.21 1702.83,1247.03 1702.98,1246.89 1703.12,1246.75 1703.32,1246.52"/>
        <lane id=":1023689485_0_2" index="2" speed="13.89" length="1.34" shape="1704.55,1249.74 1704.95,1249.43 1705.20,1249.21 1705.44,1248.96 1705.76,1248.59"/>
        <lane id=":1023689485_0_3" index="3" speed="13.89" length="1.34" shape="1706.52,1252.27 1707.06,1251.84 1707.42,1251.53 1707.75,1251.18 1708.20,1250.65"/>
    </edge>
    <edge id=":1023689495_0" function="internal">
        <lane id=":1023689495_0_0" index="0" speed="13.89" length="0.97" shape="1856.90,1309.46 1856.82,1309.51 1856.76,1309.55 1856.71,1309.59 1856.64,1309.65"/>
        <lane id=":1023689495_0_1" index="1" speed="13.89" length="0.97" shape="1855.30,1306.69 1855.05,1306.84 1854.88,1306.95 1854.73,1307.07 1854.51,1307.26"/>
        <lane id=":1023689495_0_2" index="2" speed="13.89" length="0.97" shape="1853.70,1303.92 1853.28,1304.16 1853.00,1304.34 1852.75,1304.55 1852.39,1304.87"/>
    </edge>
    <edge id=":1023689520_0" function="internal">
        <lane id=":1023689520_0_0" index="0" speed="13.89" length="0.80" shape="1727.64,1212.31 1727.99,1212.06 1728.23,1211.89 1728.48,1211.74 1728.84,1211.53"/>
        <lane id=":1023689520_0_1" index="1" speed="13.89" length="0.80" shape="1729.51,1214.90 1729.78,1214.71 1729.96,1214.58 1730.16,1214.46 1730.44,1214.30"/>
        <lane id=":1023689520_0_2" index="2" speed="13.89" length="0.80" shape="1731.37,1217.50 1731.57,1217.36 1731.70,1217.27 1731.84,1217.19 1732.04,1217.07"/>
        <lane id=":1023689520_0_3" index="3" speed="13.89" length="0.80" shape="1733.24,1220.10 1733.36,1220.02 1733.44,1219.96 1733.52,1219.91 1733.64,1219.84"/>
        <lane id=":1023689520_0_4" index="4" speed="13.89" length="0.80" shape="1735.11,1222.70 1735.15,1222.67 1735.18,1222.65 1735.20,1222.63 1735.24,1222.61"/>
    </edge>
    <edge id=":1023689550_0" function="internal">
        <lane id=":1023689550_0_0" index="0" speed="13.89" length="3.48" shape="1758.24,1206.86 1759.35,1206.64 1760.10,1206.48 1760.86,1206.35 1761.98,1206.23"/>
        <lane id=":1023689550_0_1" index="1" speed="13.89" length="3.48" shape="1758.80,1210.01 1759.81,1209.81 1760.51,1209.65 1761.20,1209.53 1762.23,1209.42"/>
        <lane id=":1023689550_0_2" index="2" speed="13.89" length="3.48" shape="1759.36,1213.16 1760.28,1212.97 1760.91,1212.83 1761.54,1212.71 1762.47,1212.61"/>
    </edge>
    <edge id=":1023689585_0" function="internal">
        <lane id=":1023689585_0_0" index="0" speed="13.89" length="3.40" shape="1821.32,1346.86 1818.04,1348.55"/>
        <lane id=":1023689585_0_1" index="1" speed="13.89" length="3.40" shape="1819.84,1344.02 1816.73,1345.63"/>
        <lane id=":1023689585_0_2" index="2" speed="13.89" length="3.40" shape="1818.36,1341.18 1815.43,1342.70"/>
        <lane id=":1023689585_0_3" index="3" speed="13.89" length="3.40" shape="1816.88,1338.35 1814.13,1339.78"/>
    </edge>
    <edge id=":1023689595_0" function="internal">
        <lane id=":1023689595_0_0" index="0" speed="13.89" length="3.44" shape="1697.33,1254.43 1697.78,1253.38 1698.08,1252.65 1698.41,1251.94 1698.95,1250.93"/>
        <lane id=":1023689595_0_1" index="1" speed="13.89" length="3.44" shape="1700.24,1255.74 1700.67,1254.77 1700.94,1254.09 1701.24,1253.43 1701.74,1252.50"/>
        <lane id=":1023689595_0_2" index="2" speed="13.89" length="3.44" shape="1703.16,1257.06 1703.55,1256.16 1703.80,1255.54 1704.07,1254.93 1704.53,1254.06"/>
        <lane id=":1023689595_0_3" index="3" speed="13.89" length="3.44" shape="1706.08,1258.37 1706.43,1257.55 1706.66,1256.98 1706.90,1256.42 1707.32,1255.63"/>
    </edge>
    <edge id=":1023689630_0" function="internal">
        <lane id=":1023689630_0_0" index="0" speed="13.89" length="0.31" shape="1782.35,1189.94 1782.51,1189.80"/>
        <lane id=":1023689630_0_1" index="1" speed="13.89" length="0.31" shape="1784.41,1192.40 1784.64,1192.20"/>
        <lane id=":1023689630_0_2" index="2" speed="13.89" length="0.31" shape="1786.46,1194.85 1786.76,1194.59"/>
    </edge>
    <edge id=":1023689677_0" function="internal">
        <lane id=":1023689677_0_0" index="0" speed="13.89" length="3.59" shape="1816.21,1214.01 1817.30,1214.45 1818.02,1214.82 1818.72,1215.23 1819.75,1215.80"/>
        <lane id=":1023689677_0_1" index="1" speed="13.89" length="3.59" shape="1815.07,1217.00 1816.06,1217.41 1816.70,1217.74 1817.33,1218.12 1818.26,1218.63"/>
        <lane id=":1023689677_0_2" index="2" speed="13.89" length="3.59" shape="1813.94,1219.99 1814.81,1220.36 1815.39,1220.66 1815.94,1221.00 1816.77,1221.47"/>
    </edge>
    <edge id=":1023689714_0" function="internal">
        <lane id=":1023689714_0_0" index="0" speed="13.89" length="0.64" shape="1753.42,1351.19 1753.32,1351.20 1753.26,1351.21 1753.19,1351.22 1753.10,1351.25"/>
        <lane id=":1023689714_0_1" index="1" speed="13.89" length="0.64" shape="1753.11,1348.00 1752.82,1348.03 1752.63,1348.06 1752.44,1348.11 1752.16,1348.19"/>
    </edge>
    <edge id=":1023689720_0" function="internal">
        <lane id=":1023689720_0_0" index="0" speed="13.89" length="4.52" shape="1858.71,1302.47 1858.40,1303.75 1858.20,1304.64 1857.96,1305.51 1857.49,1306.75"/>
        <lane id=":1023689720_0_1" index="1" speed="13.89" length="4.52" shape="1855.61,1301.66 1855.33,1302.83 1855.16,1303.64 1854.94,1304.43 1854.53,1305.55"/>
        <lane id=":1023689720_0_2" index="2" speed="13.89" length="4.52" shape="1852.51,1300.85 1852.27,1301.90 1852.12,1302.63 1851.93,1303.34 1851.56,1304.35"/>
        <lane id=":1023689720_0_3" index="3" speed="13.89" length="4.52" shape="1849.41,1300.05 1848.97,1301.75 1848.63,1302.91 1848.22,1304.05 1847.57,1305.69"/>
    </edge>
    <edge id=":1023689738_0" function="internal">
        <lane id=":1023689738_0_0" index="0" speed="13.89" length="3.50" shape="1735.96,1345.90 1732.65,1343.89"/>
        <lane id=":1023689738_0_1" index="1" speed="13.89" length="3.50" shape="1737.43,1343.05 1734.33,1341.17"/>
        <lane id=":1023689738_0_2" index="2" speed="13.89" length="3.50" shape="1738.89,1340.21 1736.01,1338.45"/>
        <lane id=":1023689738_0_3" index="3" speed="13.89" length="3.50" shape="1740.35,1337.36 1737.69,1335.72"/>
    </edge>
    <edge id=":1023689746_0" function="internal">
        <lane id=":1023689746_0_0" index="0" speed="13.89" length="0.95" shape="1868.70,1304.45 1868.61,1304.45 1868.54,1304.46 1868.48,1304.47 1868.39,1304.49"/>
        <lane id=":1023689746_0_1" index="1" speed="13.89" length="0.95" shape="1868.62,1301.25 1868.34,1301.26 1868.15,1301.28 1867.96,1301.31 1867.69,1301.37"/>
        <lane id=":1023689746_0_2" index="2" speed="13.89" length="0.95" shape="1868.54,1298.05 1868.07,1298.07 1867.75,1298.09 1867.44,1298.15 1866.98,1298.25"/>
    </edge>
    <edge id=":1023767582_0" function="internal">
        <lane id=":1023767582_0_0" index="0" speed="13.89" length="3.98" shape="1311.39,1491.59 1311.16,1490.28 1310.95,1489.38 1310.88,1488.48 1311.01,1487.18"/>
        <lane id=":1023767582_0_1" index="1" speed="13.89" length="3.98" shape="1314.56,1491.15 1314.36,1490.13 1314.17,1489.43 1314.08,1488.72 1314.17,1487.70"/>
    </edge>
    <edge id=":1023768347_0" function="internal">
        <lane id=":1023768347_0_0" index="0" speed="8.57" length="1.37" shape="1325.77,1481.23 1326.15,1481.70 1326.38,1482.05 1326.55,1482.44 1326.72,1483.02"/>
        <lane id=":1023768347_0_1" index="1" speed="13.89" length="1.37" shape="1323.32,1483.30 1323.45,1483.46 1323.53,1483.57 1323.58,1483.70 1323.64,1483.90"/>
    </edge>
    <edge id=":102918588_0" function="internal">
        <lane id=":102918588_0_0" index="0" speed="6.47" length="9.03" shape="826.29,1220.32 823.82,1220.47 822.00,1221.39 820.83,1223.06 820.32,1225.48"/>
    </edge>
    <edge id=":102918588_1" function="internal">
        <lane id=":102918588_1_0" index="0" speed="7.30" length="11.75" shape="826.29,1220.32 822.42,1220.37 819.60,1221.21 817.84,1222.84 817.13,1225.27"/>
    </edge>
    <edge id=":102918588_2" function="internal">
        <lane id=":102918588_2_0" index="0" speed="13.89" length="14.40" shape="826.29,1220.32 811.94,1219.16"/>
        <lane id=":102918588_2_1" index="1" speed="13.89" length="14.40" shape="826.55,1217.13 812.20,1215.97"/>
        <lane id=":102918588_2_2" index="2" speed="13.89" length="14.40" shape="826.81,1213.94 812.46,1212.78"/>
        <lane id=":102918588_2_3" index="3" speed="13.89" length="14.40" shape="827.07,1210.75 812.72,1209.59"/>
    </edge>
    <edge id=":102918591_0" function="internal">
        <lane id=":102918591_0_0" index="0" speed="12.79" length="1.01" shape="814.02,1321.49 813.99,1321.94 813.94,1322.24 813.86,1322.54 813.69,1322.95"/>
        <lane id=":102918591_0_1" index="1" speed="13.89" length="1.01" shape="810.83,1321.28 810.82,1321.43 810.80,1321.53 810.77,1321.63 810.72,1321.77"/>
    </edge>
    <edge id=":102918593_0" function="internal">
        <lane id=":102918593_0_0" index="0" speed="7.05" length="10.51" shape="792.55,1403.40 789.42,1403.69 787.13,1404.72 785.70,1406.49 785.11,1409.00"/>
    </edge>
    <edge id=":102918593_1" function="internal">
        <lane id=":102918593_1_0" index="0" speed="11.11" length="15.98" shape="792.55,1403.40 776.58,1403.04"/>
    </edge>
    <edge id=":102918593_2" function="internal">
        <lane id=":102918593_2_0" index="0" speed="3.65" length="4.67" shape="792.55,1403.40 791.37,1402.57 790.99,1401.76 791.41,1400.97 792.62,1400.20"/>
    </edge>
    <edge id=":102918593_3" function="internal">
        <lane id=":102918593_3_0" index="0" speed="5.91" length="9.10" shape="788.54,1394.21 787.99,1396.78 788.48,1398.63 790.03,1399.77 792.62,1400.20"/>
    </edge>
    <edge id=":102918593_4" function="internal">
        <lane id=":102918593_4_0" index="0" speed="13.89" length="15.77" shape="788.54,1394.21 786.96,1398.46 786.00,1401.43 785.46,1404.49 785.11,1409.00"/>
        <lane id=":102918593_4_1" index="1" speed="13.89" length="15.77" shape="785.54,1393.10 783.86,1397.61 782.85,1400.78 782.28,1404.03 781.92,1408.82"/>
    </edge>
    <edge id=":102918593_6" function="internal">
        <lane id=":102918593_6_0" index="0" speed="9.16" length="14.17" shape="785.54,1393.10 783.59,1397.50 781.44,1400.62 779.11,1402.47 776.58,1403.04"/>
    </edge>
    <edge id=":102918593_7" function="internal">
        <lane id=":102918593_7_0" index="0" speed="11.11" length="15.97" shape="776.66,1399.84 792.62,1400.20"/>
    </edge>
    <edge id=":102918593_8" function="internal">
        <lane id=":102918593_8_0" index="0" speed="7.26" length="11.78" shape="776.66,1399.84 779.14,1400.46 780.85,1402.16 781.77,1404.95 781.92,1408.82"/>
    </edge>
    <edge id=":102918593_9" function="internal">
        <lane id=":102918593_9_0" index="0" speed="3.65" length="4.67" shape="776.66,1399.84 777.84,1400.67 778.22,1401.48 777.80,1402.27 776.58,1403.04"/>
    </edge>
    <edge id=":102918596_0" function="internal">
        <lane id=":102918596_0_0" index="0" speed="13.89" length="9.35" shape="776.93,1551.91 776.43,1561.21"/>
        <lane id=":102918596_0_1" index="1" speed="13.89" length="9.35" shape="773.74,1551.70 773.23,1561.07"/>
    </edge>
    <edge id=":102918596_2" function="internal">
        <lane id=":102918596_2_0" index="0" speed="6.23" length="7.81" shape="773.74,1551.70 773.37,1554.42 772.66,1556.35 771.60,1557.51 770.21,1557.89"/>
    </edge>
    <edge id=":102918596_3" function="internal">
        <lane id=":102918596_3_0" index="0" speed="6.04" length="7.87" shape="770.22,1554.69 771.65,1555.10 772.62,1556.29 773.15,1558.28 773.23,1561.07"/>
    </edge>
    <edge id=":102918596_4" function="internal">
        <lane id=":102918596_4_0" index="0" speed="3.65" length="4.67" shape="770.22,1554.69 771.42,1555.50 771.82,1556.30 771.41,1557.10 770.21,1557.89"/>
    </edge>
    <edge id=":102918603_0" function="internal">
        <lane id=":102918603_0_0" index="0" speed="8.33" length="0.20" shape="349.79,1869.62 349.75,1869.92"/>
        <lane id=":102918603_0_1" index="1" speed="8.33" length="0.20" shape="346.61,1869.27 346.59,1869.37"/>
    </edge>
    <edge id=":102918605_0" function="internal">
        <lane id=":102918605_0_0" index="0" speed="8.33" length="0.38" shape="343.13,1901.31 343.09,1901.47 343.06,1901.58 343.02,1901.69 342.96,1901.85"/>
        <lane id=":102918605_0_1" index="1" speed="8.33" length="0.38" shape="340.04,1900.51 340.02,1900.56 340.01,1900.60 340.00,1900.63 339.98,1900.69"/>
    </edge>
    <edge id=":1076683317_0" function="internal">
        <lane id=":1076683317_0_0" index="0" speed="13.89" length="0.18" shape="2341.73,467.12 2341.55,467.14"/>
    </edge>
    <edge id=":1102576284_0" function="internal">
        <lane id=":1102576284_0_0" index="0" speed="8.33" length="0.67" shape="1258.25,1662.81 1258.23,1662.61 1258.20,1662.48 1258.14,1662.35 1258.05,1662.18"/>
    </edge>
    <edge id=":1102576284_1" function="internal">
        <lane id=":1102576284_1_0" index="0" speed="8.33" length="2.02" shape="1260.83,1660.60 1261.12,1661.12 1261.28,1661.50 1261.37,1661.91 1261.43,1662.50"/>
    </edge>
    <edge id=":1114615820_0" function="internal">
        <lane id=":1114615820_0_0" index="0" speed="13.89" length="0.30" shape="2256.12,460.21 2256.41,460.18"/>
        <lane id=":1114615820_0_1" index="1" speed="13.89" length="0.30" shape="2256.46,463.40 2256.76,463.36"/>
    </edge>
    <edge id=":1118812286_0" function="internal">
        <lane id=":1118812286_0_0" index="0" speed="13.89" length="0.18" shape="1205.57,470.00 1205.56,469.82"/>
    </edge>
    <edge id=":1118812286_1" function="internal">
        <lane id=":1118812286_1_0" index="0" speed="13.89" length="0.29" shape="1208.74,469.48 1208.76,469.77"/>
    </edge>
    <edge id=":1118812319_0" function="internal">
        <lane id=":1118812319_0_0" index="0" speed="13.89" length="0.29" shape="1205.68,471.44 1205.66,471.16"/>
    </edge>
    <edge id=":1118812319_1" function="internal">
        <lane id=":1118812319_1_0" index="0" speed="13.89" length="0.16" shape="1208.85,470.93 1208.86,471.09"/>
    </edge>
    <edge id=":1118812357_0" function="internal">
        <lane id=":1118812357_0_0" index="0" speed="13.89" length="0.30" shape="1205.11,465.65 1205.08,465.35"/>
    </edge>
    <edge id=":1118812357_1" function="internal">
        <lane id=":1118812357_1_0" index="0" speed="13.89" length="0.30" shape="1208.26,465.01 1208.29,465.31"/>
    </edge>
    <edge id=":1118812405_0" function="internal">
        <lane id=":1118812405_0_0" index="0" speed="13.89" length="0.30" shape="1204.20,456.98 1204.17,456.69"/>
    </edge>
    <edge id=":1118812405_1" function="internal">
        <lane id=":1118812405_1_0" index="0" speed="13.89" length="0.30" shape="1207.35,456.35 1207.38,456.65"/>
    </edge>
    <edge id=":1118833657_0" function="internal">
        <lane id=":1118833657_0_0" index="0" speed="8.33" length="0.29" shape="1135.53,387.50 1135.25,387.52"/>
    </edge>
    <edge id=":1118833657_1" function="internal">
        <lane id=":1118833657_1_0" index="0" speed="8.33" length="0.31" shape="1135.00,384.33 1135.31,384.31"/>
    </edge>
    <edge id=":1122074843_0" function="internal">
        <lane id=":1122074843_0_0" index="0" speed="13.89" length="0.30" shape="2345.79,466.67 2345.49,466.71"/>
    </edge>
    <edge id=":1122075123_0" function="internal">
        <lane id=":1122075123_0_0" index="0" speed="8.33" length="0.30" shape="2149.17,380.84 2149.14,380.56"/>
        <lane id=":1122075123_0_1" index="1" speed="8.33" length="0.30" shape="2152.35,380.49 2152.31,380.18"/>
    </edge>
    <edge id=":1122075143_0" function="internal">
        <lane id=":1122075143_0_0" index="0" speed="8.33" length="0.30" shape="2172.16,585.10 2172.13,584.79"/>
        <lane id=":1122075143_0_1" index="1" speed="8.33" length="0.30" shape="2175.34,584.72 2175.30,584.43"/>
    </edge>
    <edge id=":1122075158_0" function="internal">
        <lane id=":1122075158_0_0" index="0" speed="13.89" length="0.30" shape="2328.42,448.91 2328.70,448.88"/>
        <lane id=":1122075158_0_1" index="1" speed="13.89" length="0.30" shape="2328.78,452.09 2329.07,452.06"/>
        <lane id=":1122075158_0_2" index="2" speed="13.89" length="0.30" shape="2329.13,455.27 2329.45,455.24"/>
    </edge>
    <edge id=":1122116817_0" function="internal">
        <lane id=":1122116817_0_0" index="0" speed="8.33" length="0.30" shape="2165.22,525.40 2165.19,525.10"/>
        <lane id=":1122116817_0_1" index="1" speed="8.33" length="0.30" shape="2168.40,525.03 2168.37,524.73"/>
    </edge>