<connections>
	<connection from="109612320_4782446443_26938196" to="4586189_26938196_26727582" />
	<connection from="109612320_4782446443_26938196" to="109612320_26938196_4782446443" />
	<connection from="109612320_4782446443_26938196" to="302429264_26938196_26938199" />
	<connection from="4515853_26784919_26784918" to="4515853_26784918_26784919" />
	<connection from="4515853_26784919_26784918" to="4495207_26784918_6146156299" />
	<connection from="4515853_26784919_26784918" to="168889126_26784918_26784920" />
	<connection from="4400368_26704584_3791061780" to="4400368_3791061780_654381284" />
	<connection from="4381160_26704057_4404288496" to="4381160_4404288496_26763083" />
	<connection from="163209067_1749584808_1749584807" to="163209067_1749584807_1749584808" />
	<connection from="163209067_1749584808_1749584807" to="163209068_1749584807_26704049" />
	<connection from="4381554_26704450_368020746" to="4381554_368020746_26704452" />
	<connection from="4381554_26704450_368020746" to="4381554_368020746_26704450" />
	<connection from="25369033_4361531348_26736170" to="25369033_26736170_4361531348" />
	<connection from="25369033_4361531348_26736170" to="25369040_26736170_26736203" />
	<connection from="25369033_4361531348_26736170" to="4436919_26736170_287596320" />
	<connection from="823947542_7692836675_5845560525" to="618449093_5845560525_5845560524" />
	<connection from="823947542_7692836675_5845560525" to="823947542_5845560525_5845560520" />
	<connection from="24619224_5156519028_267620336" to="102698235_267620336_3066874440" />
	<connection from="24619224_5156519028_267620336" to="24619226_267620336_267620337" />
	<connection from="23352698_27537749_5194290241" to="355562350_5194290241_27537748" />
	<connection from="23352698_27537749_5194290241" to="165034514_5194290241_1417401017" />
	<connection from="23352698_27537749_5194290241" to="23352698_5194290241_27537749" />
	<connection from="4515845_5784633190_26736196" to="4515845_26736196_26708460" />
	<connection from="4515845_5784633190_26736196" to="724621035_26736196_6146138102" />
	<connection from="610847999_5784621456_4853814386" to="4490162_4853814386_1321335395" />
	<connection from="109612315_628156655_5784621463" to="109612315_5784621463_26875020" />
	<connection from="403736227_26784937_26784942" to="403736227_26784942_26784945" />
	<connection from="403736227_26784937_26784942" to="4495205_26784942_26784943" />
	<connection from="403736227_26784937_26784942" to="403736227_26784942_26784937" />
	<connection from="403736227_26784937_26784942" to="4495205_26784942_26784920" />
	<connection from="98996700_26736189_1145332282" to="98996700_1145332282_26736189" />
	<connection from="98996700_26736189_1145332282" to="98996702_1145332282_1145332275" />
	<connection from="480240233_102918593_6221678516" to="480240233_6221678516_102918593" />
	<connection from="480240233_102918593_6221678516" to="480240233_6221678516_27409541" />
	<connection from="24912337_900995715_4382361814" to="24912337_4382361814_26763067" />
	<connection from="4410427_26682519_26736168" to="31621011_26736168_4932289021" />
	<connection from="610848023_5784621460_5784619547" to="610848023_5784619547_5784621455" />
	<connection from="823947541_5845560517_4489578385" to="823947541_4489578385_341364291" />
	<connection from="4515626_26736143_7115947089" to="4515626_7115947089_26736143" />
	<connection from="4515626_26736143_7115947089" to="761621801_7115947089_7115947095" />
	<connection from="4515626_26736143_7115947089" to="4515626_7115947089_1016585903" />
	<connection from="109612320_628156655_4782446443" to="109612320_4782446443_26938196" />
	<connection from="109612320_628156655_4782446443" to="109612320_4782446443_628156655" />
	<connection from="231887171_1980757232_26704485" to="231887171_26704485_1749584808" />
	<connection from="231887171_1980757232_26704485" to="4381168_26704485_1749584806" />
	<connection from="231887171_1980757232_26704485" to="231887171_26704485_1980757232" />
	<connection from="302416095_3066762534_5845546373" to="302416095_5845546373_26704521" />
	<connection from="163209068_1749584807_26704049" to="163196852_26704049_292298702" />
	<connection from="163209068_1749584807_26704049" to="163208792_26704049_364309950" />
	<connection from="163209068_1749584807_26704049" to="4377781_26704049_26704052" />
	<connection from="163209068_1749584807_26704049" to="163209068_26704049_1749584807" />
	<connection from="109612320_26938196_4782446443" to="109612320_4782446443_26938196" />
	<connection from="109612320_26938196_4782446443" to="109612320_4782446443_628156655" />
	<connection from="168903523_26735757_4404288503" to="168903523_4404288503_26735757" />
	<connection from="168903523_26735757_4404288503" to="168903523_4404288503_26869181" />
	<connection from="30127237_27409724_27409693" to="30127237_27409693_27409724" />
	<connection from="30127237_27409724_27409693" to="100541440_27409693_5964778576" />
	<connection from="30127237_27409724_27409693" to="100541440_27409693_364309968" />
	<connection from="192158399_1992100022_408194196" to="36337926_408194196_415838099" />
	<connection from="823947563_7692857985_26704545" to="823947563_26704545_3066762534" />
	<connection from="823947563_7692857985_26704545" to="4531800_26704545_26869179" />
	<connection from="823947563_7692857985_26704545" to="4531799_26704545_26704523" />
	<connection from="4377785_400912982_4489578382" to="4377785_4489578382_6211151202" />
	<connection from="627460043_3791061796_5313824950" to="320896581_5313824950_21487145" />
	<connection from="163209069_26704053_3886445946" to="109612314_3886445946_1840963728" />
	<connection from="163209069_26704053_3886445946" to="163209069_3886445946_26704053" />
	<connection from="163209069_26704053_3886445946" to="163209069_3886445946_1749584806" />
	<connection from="57128181_26977832_60644033" to="57128181_60644033_26977832" />
	<connection from="57128181_26977832_60644033" to="165034514_60644033_1417401017" />
	<connection from="191543844_2021286625_6344195322" to="191543844_6344195322_2021286625" />
	<connection from="191543844_2021286625_6344195322" to="191543844_6344195322_2021286624" />
	<connection from="4490375_6146127551_26736137" to="4490378_26736137_26736143" />
	<connection from="4490375_6146127551_26736137" to="4490375_26736137_313030437" />
	<connection from="4490375_6146127551_26736137" to="4490375_26736137_6146127551" />
	<connection from="4490375_6146127551_26736137" to="4490378_26736137_26736139" />
	<connection from="152699780_27409751_27409746" to="152699780_27409746_27409751" />
	<connection from="152699780_27409751_27409746" to="209831289_27409746_26938187" />
	<connection from="4436884_26736183_20246277" to="26474541_20246277_26763079" />
	<connection from="4436884_26736183_20246277" to="4436884_20246277_26736183" />
	<connection from="152698992_263702166_4932289023" to="152698992_4932289023_26736187" />
	<connection from="823947550_20246276_7692836677" to="823947549_7692836677_587647974" />
	<connection from="32909625_7737382874_26704548" to="112427848_26704548_26704503" />
	<connection from="32909625_7737382874_26704548" to="32909625_26704548_26704513" />
	<connection from="32909625_7737382874_26704548" to="112427848_26704548_26704519" />
	<connection from="32909625_7737382874_26704548" to="32909625_26704548_7737382874" />
	<connection from="28658324_5917954596_26736203" to="28658326_26736203_26763028" />
	<connection from="28658324_5917954596_26736203" to="25369037_26736203_5917954595" />
	<connection from="28658324_5917954596_26736203" to="25369040_26736203_26736170" />
	<connection from="4400423_21487142_251150123" to="4400423_251150123_667945033" />
	<connection from="327462541_7692836676_5845549225" to="327462541_5845549225_26869180" />
	<connection from="27093182_26704483_341364246" to="27093182_341364246_26704483" />
	<connection from="27093182_26704483_341364246" to="27093182_341364246_26704524" />
	<connection from="4471286_26736188_2129678384" to="4471286_2129678384_26736188" />
	<connection from="4471286_26736188_2129678384" to="4471286_2129678384_6604935388" />
	<connection from="160346478_3791061803_26704448" to="160346478_26704448_3791061803" />
	<connection from="160346478_3791061803_26704448" to="118814489_26704448_27537750" />
	<connection from="160346478_3791061803_26704448" to="4381557_26704448_26704447" />
	<connection from="68339346_26704571_26704570" to="68339346_26704570_26704571" />
	<connection from="68339346_26704571_26704570" to="112427848_26704570_26704503" />
	<connection from="68339346_26704571_26704570" to="68339346_26704570_822836829" />
	<connection from="160346478_4573411515_3791061803" to="160346478_3791061803_4573411515" />
	<connection from="160346478_4573411515_3791061803" to="160346478_3791061803_26704448" />
	<connection from="823947541_20246275_5845560517" to="823947541_5845560517_4489578385" />
	<connection from="823947541_20246275_5845560517" to="618449090_5845560517_5845560516" />
	<connection from="610848017_4277479604_5784621460" to="610848023_5784621460_5784619547" />
	<connection from="610848017_4277479604_5784621460" to="610848017_5784621460_4277479604" />
	<connection from="4515705_26736173_26736201" to="27093179_26736201_5845538955" />
	<connection from="4515705_26736173_26736201" to="28658323_26736201_6965000731" />
	<connection from="4515705_26736173_26736201" to="4515705_26736201_26736173" />
	<connection from="823947569_3951898354_5845560524" to="618449093_5845560524_5845560525" />
	<connection from="823947569_3951898354_5845560524" to="823947569_5845560524_7692857987" />
	<connection from="25185002_21487142_251106773" to="25185002_251106773_26785753" />
	<connection from="112427848_26704548_26704519" to="112442412_26704519_1277963434" />
	<connection from="112427848_26704548_26704519" to="112442097_26704519_1277963442" />
	<connection from="112427848_26704548_26704519" to="112427848_26704519_26704548" />
	<connection from="4410427_26784926_26784925" to="4410427_26784925_26784946" />
	<connection from="4410427_26784926_26784925" to="4495205_26784925_26784943" />
	<connection from="4495204_26784924_26784945" to="403736227_26784945_26784942" />
	<connection from="4495204_26784924_26784945" to="4495204_26784945_26784924" />
	<connection from="4495204_26784924_26784945" to="403736236_26784945_26784944" />
	<connection from="24619223_4277479604_26938191" to="24619223_26938191_4277479604" />
	<connection from="24619223_4277479604_26938191" to="4402675_26938191_26938190" />
	<connection from="24619225_26875021_27409694" to="152699780_27409694_27409751" />
	<connection from="24619225_26875021_27409694" to="24619225_27409694_1972845722" />
	<connection from="24619225_26875021_27409694" to="24619225_27409694_26875021" />
	<connection from="30137421_332095915_6344195323" to="30137421_6344195323_332095922" />
	<connection from="30137421_332095915_6344195323" to="30137421_6344195323_332095915" />
	<connection from="4402675_26938191_26938190" to="4402675_26938190_26938192" />
	<connection from="744198418_26736127_26736160" to="28658322_26736160_20246276" />
	<connection from="744198418_26736127_26736160" to="28658324_26736160_5917954596" />
	<connection from="688053568_6450818477_26736188" to="4515848_26736188_17777145" />
	<connection from="688053568_6450818477_26736188" to="32909782_26736188_3900580935" />
	<connection from="688053568_6450818477_26736188" to="4471286_26736188_2129678384" />
	<connection from="31621014_102918593_26682519" to="4410427_26682519_26736168" />
	<connection from="31621014_102918593_26682519" to="31621014_26682519_102918593" />
	<connection from="31621014_102918593_26682519" to="168890013_26682519_6221678517" />
	<connection from="112427848_26704548_26704503" to="112427848_26704503_26704548" />
	<connection from="112427848_26704548_26704503" to="305422037_26704503_3100460451" />
	<connection from="112427848_26704548_26704503" to="305422037_26704503_5182106096" />
	<connection from="112427848_26704548_26704503" to="112427848_26704503_26704570" />
	<connection from="32909215_26704048_654381313" to="230611052_654381313_21487146" />
	<connection from="28658323_26736201_6965000731" to="28658323_6965000731_6965000739" />
	<connection from="259213623_26938226_654381305" to="52578339_654381305_21487143" />
	<connection from="305422037_3100460451_26704503" to="112427848_26704503_26704548" />
	<connection from="305422037_3100460451_26704503" to="305422037_26704503_3100460451" />
	<connection from="305422037_3100460451_26704503" to="305422037_26704503_5182106096" />
	<connection from="305422037_3100460451_26704503" to="112427848_26704503_26704570" />
	<connection from="152833230_1656102229_654381393" to="230611053_654381393_802800009" />
	<connection from="68339346_822836829_26704570" to="68339346_26704570_26704571" />
	<connection from="68339346_822836829_26704570" to="112427848_26704570_26704503" />
	<connection from="68339346_822836829_26704570" to="68339346_26704570_822836829" />
	<connection from="110008909_197386305_4404286888" to="110008909_4404286888_197386305" />
	<connection from="110008909_197386305_4404286888" to="110008909_4404286888_26762998" />
	<connection from="4495307_4932289024_26736178" to="4495307_26736178_4932289024" />
	<connection from="4495307_4932289024_26736178" to="821100848_26736178_26736189" />
	<connection from="4495307_4932289024_26736178" to="821100848_26736178_5233789061" />
	<connection from="302429264_26938192_26938196" to="4586189_26938196_26727582" />
	<connection from="302429264_26938192_26938196" to="109612320_26938196_4782446443" />
	<connection from="302429264_26938192_26938196" to="302429264_26938196_26938199" />
	<connection from="4515847_27409541_26938195" to="302429299_26938195_26938193" />
	<connection from="4515847_27409541_26938195" to="48372387_26938195_614419921" />
	<connection from="4531799_26704545_26704523" to="4531799_26704523_26704545" />
	<connection from="4531799_26704545_26704523" to="38587211_26704523_26704522" />
	<connection from="4531799_26704545_26704523" to="38587211_26704523_26704494" />
	<connection from="25369037_6146198024_5917954595" to="25369037_5917954595_26736203" />
	<connection from="25369037_6146198024_5917954595" to="25369037_5917954595_6146198024" />
	<connection from="32909782_3900580935_26736200" to="32909782_26736200_5784619545" />
	<connection from="32909782_3900580935_26736200" to="4490166_26736200_26736199" />
	<connection from="109612315_5784621463_26875020" to="109612315_26875020_5784621455" />
	<connection from="109612315_5784621463_26875020" to="428660082_26875020_5784621460" />
	<connection from="87687993_17777145_4598380591" to="87687993_4598380591_27409541" />
	<connection from="87687993_17777145_4598380591" to="87687993_4598380591_17777145" />
	<connection from="823947564_26704546_7692857986" to="272966280_7692857986_5845549227" />
	<connection from="168890013_26682519_6221678517" to="168890013_6221678517_26682519" />
	<connection from="168890013_26682519_6221678517" to="168890013_6221678517_26784922" />
	<connection from="4490376_26736175_26736157" to="327805903_26736157_6146138099" />
	<connection from="4490376_26736175_26736157" to="4490163_26736157_6146127554" />
	<connection from="4490376_26736175_26736157" to="4490376_26736157_26736175" />
	<connection from="32909214_6257217699_26760192" to="157658304_26760192_20246274" />
	<connection from="32909214_6257217699_26760192" to="142629241_26760192_690262560" />
	<connection from="32909214_6257217699_26760192" to="4391568_26760192_6257217698" />
	<connection from="25369040_26736170_26736203" to="28658326_26736203_26763028" />
	<connection from="25369040_26736170_26736203" to="25369037_26736203_5917954595" />
	<connection from="25369040_26736170_26736203" to="25369040_26736203_26736170" />
	<connection from="4490375_6146127551_26736175" to="4490375_26736175_6146127551" />
	<connection from="4490375_6146127551_26736175" to="724621035_26736175_3346178032" />
	<connection from="4490375_6146127551_26736175" to="4490376_26736175_26736157" />
	<connection from="163209069_3886445946_26704053" to="168903524_26704053_5845556687" />
	<connection from="163209069_3886445946_26704053" to="163209069_26704053_3886445946" />
	<connection from="4495307_4932289024_26736187" to="4495307_26736187_4932289024" />
	<connection from="4495307_4932289024_26736187" to="31621012_26736187_263703306" />
	<connection from="4495307_4932289024_26736187" to="4515846_26736187_17777144" />
	<connection from="25418282_2784054037_261568630" to="25418282_261568630_2784054037" />
	<connection from="25418282_2784054037_261568630" to="393568275_261568630_3935677405" />
	<connection from="31621013_4932289022_27409001" to="31621013_27409001_4932289022" />
	<connection from="31621013_4932289022_27409001" to="4495208_27409001_28961684" />
	<connection from="31621013_4932289022_27409001" to="31621013_27409001_26784922" />
	<connection from="821100848_26736189_26736178" to="4495307_26736178_4932289024" />
	<connection from="821100848_26736189_26736178" to="821100848_26736178_26736189" />
	<connection from="821100848_26736189_26736178" to="821100848_26736178_5233789061" />
	<connection from="32909782_26704526_4782446441" to="32909782_4782446441_1254415600" />
	<connection from="459346125_26784939_26784943" to="459346125_26784943_26784939" />
	<connection from="459346125_26784939_26784943" to="403736237_26784943_26784944" />
	<connection from="459346125_26784939_26784943" to="4495205_26784943_26784942" />
	<connection from="459346125_26784939_26784943" to="4495205_26784943_26784925" />
	<connection from="24912365_26762962_26704067" to="4409446_26704067_26763048" />
	<connection from="24912365_26762962_26704067" to="24912323_26704067_3935677406" />
	<connection from="4436885_5845538954_26736173" to="4515705_26736173_26736201" />
	<connection from="4436885_5845538954_26736173" to="4436885_26736173_5845538954" />
	<connection from="4436885_5845538954_26736173" to="32909627_26736173_888819538" />
	<connection from="4490171_370624773_26869179" to="4531800_26869179_26704545" />
	<connection from="4490171_370624773_26869179" to="823947546_26869179_7692836676" />
	<connection from="4490171_370624773_26869179" to="4490171_26869179_370624773" />
	<connection from="163937935_1404734006_2778536888" to="4381160_2778536888_26704056" />
	<connection from="27093182_341364246_26704524" to="747453201_26704524_1321335395" />
	<connection from="4515705_26736201_26736173" to="4515705_26736173_26736201" />
	<connection from="4515705_26736201_26736173" to="4436885_26736173_5845538954" />
	<connection from="4515705_26736201_26736173" to="32909627_26736173_888819538" />
	<connection from="823947562_1277967230_7692836684" to="327462540_7692836684_26736202" />
	<connection from="4495307_26736178_4932289024" to="4495307_4932289024_26736178" />
	<connection from="4495307_26736178_4932289024" to="4495307_4932289024_26736187" />
	<connection from="305422037_5182106096_5182106094" to="305422037_5182106094_5182106096" />
	<connection from="305422037_5182106096_5182106094" to="305422037_5182106094_26704512" />
	<connection from="161756393_1702876860_26704042" to="142629258_26704042_1737184228" />
	<connection from="148670266_1277967230_1277967223" to="823947547_1277967223_26869178" />
	<connection from="148670266_1277967230_1277967223" to="112442380_1277967223_1277967229" />
	<connection from="305422036_822836829_3100460453" to="68339345_3100460453_26735757" />
	<connection from="305422036_822836829_3100460453" to="305422036_3100460453_822836829" />
	<connection from="38587211_26704494_26704523" to="4531799_26704523_26704545" />
	<connection from="38587211_26704494_26704523" to="38587211_26704523_26704522" />
	<connection from="38587211_26704494_26704523" to="38587211_26704523_26704494" />
	<connection from="87687993_27409541_4598380591" to="87687993_4598380591_27409541" />
	<connection from="87687993_27409541_4598380591" to="87687993_4598380591_17777145" />
	<connection from="4490163_263703831_6146127554" to="4490163_6146127554_26736157" />
	<connection from="4490163_263703831_6146127554" to="4490163_6146127554_263703831" />
	<connection from="32909782_4782446441_1254415600" to="109612317_1254415600_26704482" />
	<connection from="515089686_3935677406_698703714" to="515089686_698703714_26704580" />
	<connection from="4391568_26760192_6257217698" to="4391568_6257217698_1350487095" />
	<connection from="168903522_1840963728_4404288513" to="168903522_4404288513_1840963728" />
	<connection from="168903522_1840963728_4404288513" to="168903522_4404288513_26704546" />
	<connection from="480240233_6221678516_102918593" to="31621014_102918593_26682519" />
	<connection from="480240233_6221678516_102918593" to="480240233_102918593_6221678516" />
	<connection from="480240233_6221678516_102918593" to="31621016_102918593_102918596" />
	<connection from="4495204_26784945_26784924" to="403736226_26784924_28961684" />
	<connection from="4495204_26784945_26784924" to="4495207_26784924_6146156299" />
	<connection from="4495204_26784945_26784924" to="4495207_26784924_26784922" />
	<connection from="4495204_26784945_26784924" to="4495204_26784924_26784945" />
	<connection from="109612320_4782446443_628156655" to="109612315_628156655_5784621463" />
	<connection from="761621801_7115947089_7115947095" to="761621801_7115947095_7115947089" />
	<connection from="165034514_1417401017_60644033" to="57128181_60644033_26977832" />
	<connection from="165034514_1417401017_60644033" to="165034514_60644033_1417401017" />
	<connection from="459346122_26784919_5784633191" to="459346122_5784633191_26736197" />
	<connection from="25369040_26736203_26736170" to="25369033_26736170_4361531348" />
	<connection from="25369040_26736203_26736170" to="25369040_26736170_26736203" />
	<connection from="25369040_26736203_26736170" to="4436919_26736170_287596320" />
	<connection from="145933306_6965000722_2627186932" to="145933306_2627186932_6965000722" />
	<connection from="165034514_1417401017_5194290241" to="355562350_5194290241_27537748" />
	<connection from="165034514_1417401017_5194290241" to="165034514_5194290241_1417401017" />
	<connection from="165034514_1417401017_5194290241" to="23352698_5194290241_27537749" />
	<connection from="25369037_26731273_6146198024" to="25369037_6146198024_26731273" />
	<connection from="25369037_26731273_6146198024" to="25369037_6146198024_5917954595" />
	<connection from="724621035_26736196_6146138102" to="724621035_6146138102_26736176" />
	<connection from="24619223_26938191_4277479604" to="24619223_4277479604_26938191" />
	<connection from="24619223_26938191_4277479604" to="610848017_4277479604_5784621460" />
	<connection from="25184342_268050708_1316823342" to="25184342_1316823342_26908924" />
	<connection from="25184342_268050708_1316823342" to="25184342_1316823342_268050708" />
	<connection from="4495205_26784920_26784942" to="403736227_26784942_26784945" />
	<connection from="4495205_26784920_26784942" to="4495205_26784942_26784943" />
	<connection from="4495205_26784920_26784942" to="403736227_26784942_26784937" />
	<connection from="4495205_26784920_26784942" to="4495205_26784942_26784920" />
	<connection from="315474030_2784054037_26704452" to="37764670_26704452_6257217701" />
	<connection from="315474030_2784054037_26704452" to="4381554_26704452_368020746" />
	<connection from="734284921_26763067_26704061" to="96837229_26704061_26762967" />
	<connection from="734284921_26763067_26704061" to="37540945_26704061_4825405699" />
	<connection from="610848023_5784619547_5784621455" to="109612315_5784621455_312778949" />
	<connection from="610848023_5784619547_5784621455" to="610848005_5784621455_5784621456" />
	<connection from="4490375_26736137_6146127551" to="4490375_6146127551_26736175" />
	<connection from="4490375_26736137_6146127551" to="4490375_6146127551_26736137" />
	<connection from="48371933_26727584_27409601" to="48371933_27409601_26727584" />
	<connection from="823947543_1339061963_20246275" to="8094229_20246275_5845560512" />
	<connection from="823947543_1339061963_20246275" to="823947541_20246275_5845560517" />
	<connection from="747453201_1321335395_26704524" to="747453201_26704524_1321335395" />
	<connection from="747453201_1321335395_26704524" to="37036260_26704524_6221665681" />
	<connection from="168890013_6221678517_26784922" to="168890013_26784922_6221678517" />
	<connection from="168890013_6221678517_26784922" to="31621013_26784922_27409001" />
	<connection from="168890013_6221678517_26784922" to="403736238_26784922_26784944" />
	<connection from="168890013_6221678517_26784922" to="4495207_26784922_26784924" />
	<connection from="168903528_26704492_26869180" to="168903529_26869180_4404288507" />
	<connection from="168903528_26704492_26869180" to="32909622_26869180_5845551786" />
	<connection from="168903528_26704492_26869180" to="168903528_26869180_26704492" />
	<connection from="4381166_26704494_1980757232" to="231887171_1980757232_26704485" />
	<connection from="4381166_26704494_1980757232" to="26969521_1980757232_341364250" />
	<connection from="4381166_26704494_1980757232" to="4381166_1980757232_26704483" />
	<connection from="4381166_26704494_1980757232" to="4381166_1980757232_26704494" />
	<connection from="461905066_4573411515_26704450" to="461905066_26704450_4573411515" />
	<connection from="461905066_4573411515_26704450" to="4381554_26704450_368020746" />
	<connection from="461905066_4573411515_26704450" to="269636104_26704450_313020966" />
	<connection from="32909624_370624772_3100460451" to="32909624_3100460451_370624772" />
	<connection from="32909624_370624772_3100460451" to="305422037_3100460451_26704503" />
	<connection from="96837219_5845560514_26763072" to="823947569_26763072_5845560518" />
	<connection from="96837219_5845560514_26763072" to="8094229_26763072_20246275" />
	<connection from="4515849_26704526_26875020" to="109612315_26875020_5784621455" />
	<connection from="4515849_26704526_26875020" to="428660082_26875020_5784621460" />
	<connection from="28241308_26977832_5964778573" to="28241308_5964778573_26977832" />
	<connection from="28241308_26977832_5964778573" to="28241308_5964778573_26903227" />
	<connection from="32909626_1277963434_370624774" to="32909626_370624774_1277963434" />
	<connection from="32909626_1277963434_370624774" to="112442376_370624774_1277967229" />
	<connection from="4410427_26784946_6221678514" to="4410427_6221678514_26682519" />
	<connection from="35582944_3951898354_26762998" to="823947543_26762998_5845560523" />
	<connection from="35582944_3951898354_26762998" to="35582944_26762998_3951898354" />
	<connection from="35582944_3951898354_26762998" to="110008909_26762998_4404286888" />
	<connection from="100541440_364309968_27409693" to="30127237_27409693_27409724" />
	<connection from="100541440_364309968_27409693" to="100541440_27409693_5964778576" />
	<connection from="100541440_364309968_27409693" to="100541440_27409693_364309968" />
	<connection from="152946752_26704051_26704042" to="142629258_26704042_1737184228" />
	<connection from="157658304_20246274_26760192" to="157658304_26760192_20246274" />
	<connection from="157658304_20246274_26760192" to="142629241_26760192_690262560" />
	<connection from="157658304_20246274_26760192" to="4391568_26760192_6257217698" />
	<connection from="459346124_1293378215_27409159" to="459346122_27409159_931624462" />
	<connection from="459346124_1293378215_27409159" to="459346124_27409159_1293378215" />
	<connection from="4471286_2129678384_6604935388" to="4471286_6604935388_2129678384" />
	<connection from="4495205_26784925_26784943" to="459346125_26784943_26784939" />
	<connection from="4495205_26784925_26784943" to="403736237_26784943_26784944" />
	<connection from="4495205_26784925_26784943" to="4495205_26784943_26784942" />
	<connection from="4495205_26784925_26784943" to="4495205_26784943_26784925" />
	<connection from="327805905_3346178031_4404288520" to="327805905_4404288520_26736159" />
	<connection from="163196852_26704049_292298702" to="163196852_292298702_26704049" />
	<connection from="163196852_26704049_292298702" to="142629261_292298702_1702876860" />
	<connection from="302429299_26938195_26938193" to="31621015_26938193_27409576" />
	<connection from="302429299_26938195_26938193" to="302429299_26938193_3066874439" />
	<connection from="302429299_26938195_26938193" to="48372388_26938193_26727584" />
	<connection from="4381168_26704485_1749584806" to="4381168_1749584806_26704485" />
	<connection from="4381168_26704485_1749584806" to="163209069_1749584806_3886445946" />
	<connection from="327805906_26736139_5845538104" to="327805906_5845538104_1016697526" />
	<connection from="4381554_368020746_26704452" to="37764670_26704452_6257217701" />
	<connection from="4381554_368020746_26704452" to="4381554_26704452_368020746" />
	<connection from="4381554_368020746_26704450" to="461905066_26704450_4573411515" />
	<connection from="4381554_368020746_26704450" to="4381554_26704450_368020746" />
	<connection from="4381554_368020746_26704450" to="269636104_26704450_313020966" />
	<connection from="98996702_1145332275_1145332282" to="98996700_1145332282_26736189" />
	<connection from="98996702_1145332275_1145332282" to="98996702_1145332282_1145332275" />
	<connection from="30127237_26875021_27409755" to="30127237_27409755_27409724" />
	<connection from="30127237_26875021_27409755" to="30127237_27409755_26875021" />
	<connection from="30127237_26875021_27409755" to="152832873_27409755_27409751" />
	<connection from="109612315_5784621455_312778949" to="371175286_312778949_3900580941" />
	<connection from="4475785_263702167_6146138101" to="4475785_6146138101_26736154" />
	<connection from="4475785_263702167_6146138101" to="4475785_6146138101_263702167" />
	<connection from="28506737_313154028_26736139" to="4490378_26736139_26736137" />
	<connection from="28506737_313154028_26736139" to="327805906_26736139_5845538104" />
	<connection from="28506737_313154028_26736139" to="28506737_26736139_313154028" />