<?xml version="1.0" encoding="UTF-8"?>

<!-- generated on 2021-07-02 12:20:57 by Eclipse SUMO netconvert Version 1.9.2
<configuration xmlns:xsi="http://www.w3.org/2001/XMLSchema-instance" xsi:noNamespaceSchemaLocation="http://sumo.dlr.de/xsd/netconvertConfiguration.xsd">

    <input>
        <node-files value="/home/parallels/Development/mosaic-nes/tools/scenario-generator/examples/scenarios/ernst-reuter/application/ernst-reuter.nod.xml"/>
        <edge-files value="/home/parallels/Development/mosaic-nes/tools/scenario-generator/examples/scenarios/ernst-reuter/application/ernst-reuter.edg.xml"/>
        <connection-files value="/home/parallels/Development/mosaic-nes/tools/scenario-generator/examples/scenarios/ernst-reuter/application/ernst-reuter.con.xml"/>
    </input>

    <output>
        <output-file value="/home/parallels/Development/mosaic-nes/tools/scenario-generator/examples/scenarios/ernst-reuter/application/ernst-reuter.net.xml"/>
    </output>

    <report>
        <aggregate-warnings value="5"/>
    </report>

</configuration>
-->

<net version="1.9" junctionCornerDetail="5" limitTurnSpeed="5.50" xmlns:xsi="http://www.w3.org/2001/XMLSchema-instance" xsi:noNamespaceSchemaLocation="http://sumo.dlr.de/xsd/net_file.xsd">

    <location netOffset="-384341.36,-5818097.61" convBoundary="0.00,0.00,2682.13,1972.98" origBoundary="384341.36,5818097.61,387023.49,5820070.59" projParameter="!"/>

    <edge id=":1016585903_0" function="internal">
        <lane id=":1016585903_0_0" index="0" speed="8.33" length="0.30" shape="389.78,1002.63 389.48,1002.63"/>
    </edge>
    <edge id=":1016585903_1" function="internal">
        <lane id=":1016585903_1_0" index="0" speed="8.33" length="0.30" shape="389.56,999.43 389.86,999.43"/>
    </edge>
    <edge id=":102918588_0" function="internal">
        <lane id=":102918588_0_0" index="0" speed="6.48" length="9.03" shape="826.30,1220.31 823.82,1220.47 822.00,1221.38 820.83,1223.05 820.32,1225.47"/>
        <lane id=":102918588_0_1" index="1" speed="7.30" length="11.75" shape="826.30,1220.31 822.43,1220.36 819.61,1221.20 817.84,1222.83 817.13,1225.27"/>
    </edge>
    <edge id=":102918588_2" function="internal">
        <lane id=":102918588_2_0" index="0" speed="13.89" length="14.40" shape="826.30,1220.31 811.94,1219.16"/>
        <lane id=":102918588_2_1" index="1" speed="13.89" length="14.40" shape="826.55,1217.13 812.20,1215.97"/>
        <lane id=":102918588_2_2" index="2" speed="13.89" length="14.40" shape="826.81,1213.94 812.46,1212.78"/>
        <lane id=":102918588_2_3" index="3" speed="13.89" length="14.40" shape="827.07,1210.75 812.72,1209.59"/>
    </edge>
    <edge id=":102918593_0" function="internal">
        <lane id=":102918593_0_0" index="0" speed="7.05" length="10.51" shape="792.56,1403.40 789.42,1403.69 787.13,1404.72 785.70,1406.49 785.11,1409.00"/>
    </edge>
    <edge id=":102918593_1" function="internal">
        <lane id=":102918593_1_0" index="0" speed="11.11" length="15.98" shape="792.56,1403.40 776.58,1403.04"/>
    </edge>
    <edge id=":102918593_2" function="internal">
        <lane id=":102918593_2_0" index="0" speed="3.65" length="4.67" shape="792.56,1403.40 791.37,1402.57 790.99,1401.76 791.41,1400.97 792.63,1400.20"/>
    </edge>
    <edge id=":102918593_3" function="internal">
        <lane id=":102918593_3_0" index="0" speed="5.91" length="9.10" shape="788.55,1394.20 787.99,1396.78 788.48,1398.63 790.03,1399.77 792.63,1400.20"/>
    </edge>
    <edge id=":102918593_4" function="internal">
        <lane id=":102918593_4_0" index="0" speed="13.89" length="15.77" shape="788.55,1394.20 786.96,1398.45 786.00,1401.43 785.46,1404.49 785.11,1409.00"/>
        <lane id=":102918593_4_1" index="1" speed="13.89" length="15.77" shape="785.55,1393.10 783.86,1397.61 782.85,1400.77 782.28,1404.03 781.92,1408.82"/>
    </edge>
    <edge id=":102918593_6" function="internal">
        <lane id=":102918593_6_0" index="0" speed="9.17" length="14.17" shape="785.55,1393.10 783.59,1397.49 781.44,1400.62 779.11,1402.47 776.58,1403.04"/>
    </edge>
    <edge id=":102918593_7" function="internal">
        <lane id=":102918593_7_0" index="0" speed="11.11" length="15.97" shape="776.66,1399.84 792.63,1400.20"/>
    </edge>
    <edge id=":102918593_8" function="internal">
        <lane id=":102918593_8_0" index="0" speed="7.26" length="11.78" shape="776.66,1399.84 779.14,1400.45 780.85,1402.16 781.77,1404.94 781.92,1408.82"/>
    </edge>
    <edge id=":102918593_9" function="internal">
        <lane id=":102918593_9_0" index="0" speed="3.65" length="4.67" shape="776.66,1399.84 777.84,1400.67 778.22,1401.48 777.80,1402.27 776.58,1403.04"/>
    </edge>
    <edge id=":102918596_0" function="internal">
        <lane id=":102918596_0_0" index="0" speed="13.89" length="9.35" shape="776.93,1551.91 776.43,1561.21"/>
        <lane id=":102918596_0_1" index="1" speed="13.89" length="9.35" shape="773.74,1551.71 773.23,1561.07"/>
    </edge>
    <edge id=":102918596_2" function="internal">
        <lane id=":102918596_2_0" index="0" speed="6.23" length="7.81" shape="773.74,1551.71 773.37,1554.42 772.66,1556.35 771.60,1557.51 770.21,1557.89"/>
    </edge>
    <edge id=":102918596_3" function="internal">
        <lane id=":102918596_3_0" index="0" speed="6.04" length="7.87" shape="770.22,1554.69 771.64,1555.10 772.62,1556.29 773.15,1558.29 773.23,1561.07"/>
    </edge>
    <edge id=":102918596_4" function="internal">
        <lane id=":102918596_4_0" index="0" speed="3.65" length="4.67" shape="770.22,1554.69 771.42,1555.50 771.82,1556.30 771.41,1557.10 770.21,1557.89"/>
    </edge>
    <edge id=":1076683317_0" function="internal">
        <lane id=":1076683317_0_0" index="0" speed="13.89" length="0.10" shape="2341.60,467.12 2341.68,467.11"/>
    </edge>
    <edge id=":1122075123_0" function="internal">
        <lane id=":1122075123_0_0" index="0" speed="8.33" length="0.30" shape="2149.17,380.83 2149.13,380.56"/>
        <lane id=":1122075123_0_1" index="1" speed="8.33" length="0.30" shape="2152.35,380.49 2152.31,380.18"/>
    </edge>
    <edge id=":1122075158_0" function="internal">
        <lane id=":1122075158_0_0" index="0" speed="13.89" length="0.30" shape="2328.42,448.91 2328.70,448.88"/>
        <lane id=":1122075158_0_1" index="1" speed="13.89" length="0.30" shape="2328.78,452.09 2329.07,452.05"/>
        <lane id=":1122075158_0_2" index="2" speed="13.89" length="0.30" shape="2329.13,455.27 2329.45,455.23"/>
    </edge>
    <edge id=":1145332275_0" function="internal">
        <lane id=":1145332275_0_0" index="0" speed="8.33" length="0.31" shape="805.84,1163.31 805.80,1163.61"/>
    </edge>
    <edge id=":1145332275_1" function="internal">
        <lane id=":1145332275_1_0" index="0" speed="8.33" length="0.28" shape="802.62,1163.26 802.65,1162.98"/>
    </edge>
    <edge id=":1145332282_0" function="internal">
        <lane id=":1145332282_0_0" index="0" speed="8.33" length="0.29" shape="807.21,1150.09 807.18,1150.38"/>
    </edge>
    <edge id=":1145332282_1" function="internal">
        <lane id=":1145332282_1_0" index="0" speed="8.33" length="0.30" shape="803.99,1150.05 804.02,1149.75"/>
    </edge>
    <edge id=":1223838352_0" function="internal">
        <lane id=":1223838352_0_0" index="0" speed="13.89" length="0.29" shape="1600.83,1241.54 1601.17,1241.57"/>
        <lane id=":1223838352_0_1" index="1" speed="13.89" length="0.29" shape="1600.56,1244.73 1600.87,1244.75"/>
        <lane id=":1223838352_0_2" index="2" speed="13.89" length="0.29" shape="1600.30,1247.92 1600.58,1247.94"/>
        <lane id=":1223838352_0_3" index="3" speed="13.89" length="0.29" shape="1600.04,1251.11 1600.28,1251.13"/>
    </edge>
    <edge id=":1226871854_0" function="internal">
        <lane id=":1226871854_0_0" index="0" speed="3.65" length="4.67" shape="283.27,1620.71 282.11,1619.85 281.75,1619.03 282.19,1618.25 283.43,1617.51"/>
    </edge>
    <edge id=":1254415600_0" function="internal">
        <lane id=":1254415600_0_0" index="0" speed="13.89" length="0.14" shape="1455.75,1229.23 1456.00,1229.25"/>
        <lane id=":1254415600_0_1" index="1" speed="13.89" length="0.14" shape="1455.53,1232.42 1455.71,1232.43"/>
        <lane id=":1254415600_0_2" index="2" speed="13.89" length="0.14" shape="1455.31,1235.61 1455.41,1235.62"/>
        <lane id=":1254415600_0_3" index="3" speed="13.89" length="0.14" shape="1455.08,1238.80 1455.12,1238.81"/>
    </edge>
    <edge id=":1277963434_0" function="internal">
        <lane id=":1277963434_0_0" index="0" speed="13.89" length="7.84" shape="1201.20,428.18 1200.46,426.03 1199.15,424.88 1197.72,423.75 1196.60,421.68"/>
        <lane id=":1277963434_0_1" index="1" speed="13.89" length="7.84" shape="1201.20,428.18 1200.94,425.97 1200.68,424.47 1200.31,422.99 1199.70,420.85"/>
    </edge>
    <edge id=":1277963434_2" function="internal">
        <lane id=":1277963434_2_0" index="0" speed="13.89" length="9.79" shape="1207.48,418.78 1206.84,421.54 1205.67,423.32 1204.63,425.09 1204.38,427.84"/>
    </edge>
    <edge id=":1277963441_0" function="internal">
        <lane id=":1277963441_0_0" index="0" speed="3.75" length="4.64" shape="1191.42,343.35 1192.08,342.08 1192.82,341.59 1193.66,341.90 1194.58,343.00"/>
    </edge>
    <edge id=":1277963442_0" function="internal">
        <lane id=":1277963442_0_0" index="0" speed="7.36" length="10.42" shape="1190.32,390.69 1189.56,387.92 1188.15,385.92 1186.11,384.70 1183.42,384.26"/>
    </edge>
    <edge id=":1277963442_1" function="internal">
        <lane id=":1277963442_1_0" index="0" speed="13.89" length="15.15" shape="1190.32,390.69 1189.70,386.19 1189.36,383.10 1189.14,380.00 1188.93,375.47"/>
        <lane id=":1277963442_1_1" index="1" speed="13.89" length="15.15" shape="1193.49,390.25 1192.88,385.84 1192.55,382.81 1192.34,379.77 1192.13,375.32"/>
    </edge>
    <edge id=":1277963442_3" function="internal">
        <lane id=":1277963442_3_0" index="0" speed="8.33" length="13.87" shape="1197.29,384.49 1183.42,384.26"/>
    </edge>
    <edge id=":1277963442_4" function="internal">
        <lane id=":1277963442_4_0" index="0" speed="7.42" length="11.57" shape="1197.29,384.49 1195.19,383.90 1193.63,382.18 1192.61,379.32 1192.13,375.32"/>
    </edge>
    <edge id=":1277963442_5" function="internal">
        <lane id=":1277963442_5_0" index="0" speed="3.65" length="4.67" shape="1197.29,384.49 1196.10,383.68 1195.71,382.87 1196.11,382.08 1197.32,381.29"/>
    </edge>
    <edge id=":1277963442_6" function="internal">
        <lane id=":1277963442_6_0" index="0" speed="6.37" length="9.04" shape="1183.48,381.06 1185.96,380.75 1187.70,379.72 1188.69,377.95 1188.93,375.47"/>
    </edge>
    <edge id=":1277963442_7" function="internal">
        <lane id=":1277963442_7_0" index="0" speed="8.33" length="13.84" shape="1183.48,381.06 1197.32,381.29"/>
    </edge>
    <edge id=":1277963442_8" function="internal">
        <lane id=":1277963442_8_0" index="0" speed="3.65" length="4.67" shape="1183.48,381.06 1184.67,381.88 1185.05,382.69 1184.64,383.48 1183.42,384.26"/>
    </edge>
    <edge id=":1277967223_0" function="internal">
        <lane id=":1277967223_0_0" index="0" speed="13.89" length="18.02" shape="1207.58,587.56 1207.36,582.26 1207.97,578.62 1208.65,574.97 1208.68,569.65"/>
        <lane id=":1277967223_0_1" index="1" speed="13.89" length="18.02" shape="1210.75,587.14 1210.53,581.85 1211.14,578.21 1211.83,574.55 1211.86,569.24"/>
    </edge>
    <edge id=":1277967223_2" function="internal">
        <lane id=":1277967223_2_0" index="0" speed="6.50" length="9.03" shape="1213.92,586.72 1213.95,584.25 1214.77,582.38 1216.37,581.12 1218.76,580.46"/>
    </edge>
    <edge id=":1277967223_3" function="internal">
        <lane id=":1277967223_3_0" index="0" speed="7.47" length="11.82" shape="1200.48,576.35 1204.24,575.52 1206.86,574.13 1208.34,572.17 1208.68,569.65"/>
        <lane id=":1277967223_3_1" index="1" speed="8.82" length="16.89" shape="1200.89,579.52 1205.96,578.32 1209.48,576.21 1211.44,573.18 1211.86,569.24"/>
    </edge>
    <edge id=":1277967223_5" function="internal">
        <lane id=":1277967223_5_0" index="0" speed="8.33" length="17.99" shape="1201.30,582.69 1206.46,581.53 1209.83,579.99 1213.19,578.45 1218.36,577.29"/>
    </edge>
    <edge id=":1277967229_0" function="internal">
        <lane id=":1277967229_0_0" index="0" speed="13.89" length="22.02" shape="1213.55,512.19 1214.79,515.91 1217.22,520.04 1220.16,525.21 1222.96,532.01"/>
    </edge>
    <edge id=":1277967229_1" function="internal">
        <lane id=":1277967229_1_0" index="0" speed="3.65" length="2.46" shape="1213.55,512.19 1212.89,513.47 1212.15,513.97 1212.03,513.92"/>
    </edge>
    <edge id=":1277967229_5" function="internal">
        <lane id=":1277967229_5_0" index="0" speed="3.65" length="2.21" shape="1212.03,513.92 1211.31,513.66 1210.37,512.57"/>
    </edge>
    <edge id=":1277967229_2" function="internal">
        <lane id=":1277967229_2_0" index="0" speed="13.89" length="21.61" shape="1208.90,534.09 1209.69,527.23 1210.28,521.46 1210.54,516.63 1210.37,512.57"/>
    </edge>
    <edge id=":1277967229_3" function="internal">
        <lane id=":1277967229_3_0" index="0" speed="7.09" length="20.52" shape="1212.08,534.45 1213.38,527.18 1215.12,524.51 1217.30,526.45 1219.91,532.99"/>
        <lane id=":1277967229_3_1" index="1" speed="5.68" length="12.43" shape="1212.08,534.45 1212.86,530.15 1213.92,528.63 1215.25,529.91 1216.87,533.97"/>
    </edge>
    <edge id=":1277967230_0" function="internal">
        <lane id=":1277967230_0_0" index="0" speed="7.24" length="11.29" shape="1210.69,611.31 1209.88,607.79 1208.51,605.35 1206.56,604.02 1204.06,603.78"/>
    </edge>
    <edge id=":1277967230_1" function="internal">
        <lane id=":1277967230_1_0" index="0" speed="13.89" length="17.02" shape="1210.69,611.31 1208.48,594.44"/>
        <lane id=":1277967230_1_1" index="1" speed="13.89" length="17.02" shape="1213.87,610.90 1211.65,594.02"/>
        <lane id=":1277967230_1_2" index="2" speed="13.89" length="17.02" shape="1217.04,610.49 1214.83,593.60"/>
    </edge>
    <edge id=":1277967230_4" function="internal">
        <lane id=":1277967230_4_0" index="0" speed="8.33" length="19.10" shape="1221.93,604.86 1216.46,604.53 1212.80,602.77 1209.14,600.99 1203.67,600.61"/>
    </edge>
    <edge id=":1277967230_5" function="internal">
        <lane id=":1277967230_5_0" index="0" speed="8.04" length="14.24" shape="1221.55,601.69 1217.65,601.61 1214.70,600.30 1212.70,597.77 1211.65,594.02"/>
        <lane id=":1277967230_5_1" index="1" speed="6.56" length="9.12" shape="1221.16,598.51 1218.66,598.46 1216.78,597.62 1215.50,596.00 1214.83,593.60"/>
    </edge>
    <edge id=":1277967231_0" function="internal">
        <lane id=":1277967231_0_0" index="0" speed="13.89" length="19.26" shape="1229.45,677.40 1228.20,673.96 1225.81,670.54 1222.92,666.37 1220.14,660.67"/>
    </edge>
    <edge id=":1277967231_1" function="internal">
        <lane id=":1277967231_1_0" index="0" speed="3.65" length="2.46" shape="1229.45,677.40 1230.09,676.11 1230.84,675.61 1230.95,675.65"/>
    </edge>
    <edge id=":1277967231_5" function="internal">
        <lane id=":1277967231_5_0" index="0" speed="3.65" length="2.21" shape="1230.95,675.65 1231.68,675.91 1232.63,676.99"/>
    </edge>
    <edge id=":1277967231_2" function="internal">
        <lane id=":1277967231_2_0" index="0" speed="13.89" length="18.71" shape="1234.41,658.43 1233.41,664.51 1232.72,669.30 1232.43,673.29 1232.63,676.99"/>
    </edge>
    <edge id=":1277967231_3" function="internal">
        <lane id=":1277967231_3_0" index="0" speed="6.81" length="18.02" shape="1231.25,657.92 1229.75,664.12 1227.90,666.47 1225.70,664.94 1223.13,659.55"/>
        <lane id=":1277967231_3_1" index="1" speed="5.53" length="11.25" shape="1231.25,657.92 1230.33,661.66 1229.17,663.00 1227.77,661.92 1226.13,658.43"/>
    </edge>
    <edge id=":1293378215_0" function="internal">
        <lane id=":1293378215_0_0" index="0" speed="3.65" length="4.67" shape="289.92,1649.39 289.71,1647.96 290.04,1647.13 290.90,1646.89 292.30,1647.25"/>
    </edge>
    <edge id=":1316823342_0" function="internal">
        <lane id=":1316823342_0_0" index="0" speed="13.89" length="0.28" shape="1976.94,1751.62 1976.70,1751.77"/>
    </edge>
    <edge id=":1316823342_1" function="internal">
        <lane id=":1316823342_1_0" index="0" speed="13.89" length="0.31" shape="1975.04,1749.03 1975.31,1748.87"/>
    </edge>
    <edge id=":1321325636_0" function="internal">
        <lane id=":1321325636_0_0" index="0" speed="13.89" length="0.10" shape="1713.41,1373.27 1713.28,1373.35"/>
        <lane id=":1321325636_0_1" index="1" speed="13.89" length="0.10" shape="1711.80,1370.51 1711.75,1370.54"/>
    </edge>
    <edge id=":1321335395_0" function="internal">
        <lane id=":1321335395_0_0" index="0" speed="13.89" length="0.29" shape="1280.21,1109.62 1280.17,1109.34"/>
    </edge>
    <edge id=":1321335395_1" function="internal">
        <lane id=":1321335395_1_0" index="0" speed="13.89" length="0.31" shape="1283.35,1108.95 1283.39,1109.25"/>
    </edge>
    <edge id=":1335664904_0" function="internal">
        <lane id=":1335664904_0_0" index="0" speed="13.89" length="3.37" shape="2331.81,1310.78 2335.40,1311.16"/>
        <lane id=":1335664904_0_1" index="1" speed="13.89" length="3.37" shape="2331.70,1313.97 2335.04,1314.34"/>
        <lane id=":1335664904_0_2" index="2" speed="13.89" length="3.37" shape="2331.58,1317.17 2334.68,1317.52"/>
    </edge>
    <edge id=":1339061963_0" function="internal">
        <lane id=":1339061963_0_0" index="0" speed="13.89" length="0.29" shape="2149.45,471.31 2149.73,471.28"/>
        <lane id=":1339061963_0_1" index="1" speed="13.89" length="0.29" shape="2149.81,474.49 2150.12,474.45"/>
    </edge>
    <edge id=":1339061969_0" function="internal">
        <lane id=":1339061969_0_0" index="0" speed="13.89" length="0.27" shape="2040.03,505.34 2039.76,505.38"/>
    </edge>
    <edge id=":1350487095_0" function="internal">
        <lane id=":1350487095_0_0" index="0" speed="8.33" length="0.30" shape="2185.18,695.26 2185.15,694.96"/>
        <lane id=":1350487095_0_1" index="1" speed="8.33" length="0.30" shape="2188.36,694.87 2188.32,694.58"/>
    </edge>
    <edge id=":1363248023_0" function="internal">
        <lane id=":1363248023_0_0" index="0" speed="13.89" length="0.10" shape="1947.81,1309.60 1947.81,1309.60"/>
        <lane id=":1363248023_0_1" index="1" speed="13.89" length="0.10" shape="1948.08,1306.41 1948.08,1306.41"/>
        <lane id=":1363248023_0_2" index="2" speed="13.89" length="0.10" shape="1948.34,1303.22 1948.34,1303.22"/>
    </edge>
    <edge id=":1404734006_0" function="internal">
        <lane id=":1404734006_0_0" index="0" speed="8.33" length="1.13" shape="1753.14,446.32 1753.59,446.09 1753.91,445.96 1754.25,445.89 1754.74,445.82"/>
        <lane id=":1404734006_0_1" index="1" speed="8.33" length="1.13" shape="1754.61,449.16 1754.76,449.08 1754.87,449.04 1754.98,449.02 1755.15,448.99"/>
    </edge>
    <edge id=":1417401017_0" function="internal">
        <lane id=":1417401017_0_0" index="0" speed="13.89" length="0.10" shape="2441.35,1366.63 2441.34,1366.71"/>
    </edge>
    <edge id=":1417401017_1" function="internal">
        <lane id=":1417401017_1_0" index="0" speed="13.89" length="0.10" shape="2438.16,1366.39 2438.15,1366.47"/>
    </edge>
    <edge id=":1560791805_0" function="internal">
        <lane id=":1560791805_0_0" index="0" speed="13.89" length="3.69" shape="2461.98,449.87 2461.00,450.01 2460.34,450.14 2459.69,450.34 2458.75,450.68"/>
        <lane id=":1560791805_0_1" index="1" speed="13.89" length="3.69" shape="2461.55,446.70 2460.36,446.87 2459.56,447.03 2458.77,447.27 2457.64,447.68"/>
    </edge>
    <edge id=":1560791805_2" function="internal">
        <lane id=":1560791805_2_0" index="0" speed="3.65" length="2.34" shape="2461.55,446.70 2460.25,446.07 2459.75,445.33"/>
    </edge>
    <edge id=":1560791805_5" function="internal">
        <lane id=":1560791805_5_0" index="0" speed="3.65" length="2.34" shape="2459.75,445.33 2460.03,444.48 2461.11,443.53"/>
    </edge>
    <edge id=":1560791805_3" function="internal">
        <lane id=":1560791805_3_0" index="0" speed="13.89" length="3.69" shape="2457.31,440.50 2458.31,440.55 2459.00,440.55 2459.68,440.49 2460.68,440.36"/>
        <lane id=":1560791805_3_1" index="1" speed="13.89" length="3.69" shape="2457.12,443.69 2458.31,443.75 2459.12,443.75 2459.94,443.68 2461.11,443.53"/>
    </edge>
    <edge id=":1560866095_0" function="internal">
        <lane id=":1560866095_0_0" index="0" speed="8.33" length="10.74" shape="2420.31,576.91 2421.61,573.75 2420.27,570.54 2418.97,567.38 2420.43,564.40"/>
        <lane id=":1560866095_0_1" index="1" speed="8.33" length="10.74" shape="2422.42,579.32 2423.68,576.19 2422.30,573.01 2420.96,569.89 2422.37,566.94"/>
        <lane id=":1560866095_0_2" index="2" speed="8.33" length="10.74" shape="2422.42,579.32 2423.74,576.81 2423.29,574.30 2422.88,571.84 2424.32,569.48"/>
        <lane id=":1560866095_0_3" index="3" speed="8.33" length="10.74" shape="2422.42,579.32 2423.87,577.38 2424.28,575.59 2424.72,573.84 2426.27,572.02"/>
        <lane id=":1560866095_0_4" index="4" speed="8.33" length="10.74" shape="2422.42,579.32 2428.21,574.56"/>
    </edge>
    <edge id=":1560866121_0" function="internal">
        <lane id=":1560866121_0_0" index="0" speed="13.89" length="0.29" shape="2121.67,851.68 2121.51,851.81"/>
        <lane id=":1560866121_0_1" index="1" speed="13.89" length="0.29" shape="2119.71,849.16 2119.48,849.34"/>
        <lane id=":1560866121_0_2" index="2" speed="13.89" length="0.29" shape="2117.74,846.63 2117.44,846.87"/>
    </edge>
    <edge id=":1656102229_0" function="internal">
        <lane id=":1656102229_0_0" index="0" speed="13.89" length="0.75" shape="1831.51,1350.77 1831.52,1350.80 1831.53,1350.82 1831.55,1350.84 1831.57,1350.87"/>
        <lane id=":1656102229_0_1" index="1" speed="13.89" length="0.75" shape="1828.38,1350.02 1828.33,1350.43 1828.32,1350.71 1828.35,1351.00 1828.41,1351.40"/>
    </edge>
    <edge id=":1702876860_0" function="internal">
        <lane id=":1702876860_0_0" index="0" speed="8.33" length="0.29" shape="2011.59,817.71 2011.83,817.51"/>
        <lane id=":1702876860_0_1" index="1" speed="8.33" length="0.29" shape="2013.61,820.19 2013.83,820.02"/>
    </edge>
    <edge id=":1723927599_0" function="internal">
        <lane id=":1723927599_0_0" index="0" speed="13.89" length="8.31" shape="1811.20,1401.35 1810.72,1399.03 1809.61,1397.61 1808.44,1396.20 1807.79,1393.89"/>
        <lane id=":1723927599_0_1" index="1" speed="13.89" length="8.31" shape="1814.40,1401.37 1813.92,1398.98 1812.80,1397.52 1811.63,1396.06 1810.98,1393.68"/>
        <lane id=":1723927599_0_2" index="2" speed="13.89" length="8.31" shape="1814.40,1401.37 1814.17,1393.47"/>
    </edge>
    <edge id=":1737184227_0" function="internal">
        <lane id=":1737184227_0_0" index="0" speed="8.33" length="0.30" shape="2027.17,806.11 2027.41,805.94"/>
        <lane id=":1737184227_0_1" index="1" speed="8.33" length="0.30" shape="2029.01,808.73 2029.26,808.55"/>
    </edge>
    <edge id=":1737184228_0" function="internal">
        <lane id=":1737184228_0_0" index="0" speed="8.33" length="3.65" shape="2025.15,807.42 2022.17,809.45"/>
        <lane id=":1737184228_0_1" index="1" speed="8.33" length="3.65" shape="2026.95,810.06 2023.90,812.14"/>
    </edge>
    <edge id=":1749584806_0" function="internal">
        <lane id=":1749584806_0_0" index="0" speed="8.33" length="0.10" shape="1651.40,855.98 1651.36,856.05"/>
    </edge>
    <edge id=":1749584806_1" function="internal">
        <lane id=":1749584806_1_0" index="0" speed="8.33" length="0.10" shape="1648.52,854.59 1648.48,854.66"/>
    </edge>
    <edge id=":1749584807_0" function="internal">
        <lane id=":1749584807_0_0" index="0" speed="8.33" length="0.31" shape="1692.52,870.27 1692.21,870.31"/>
    </edge>
    <edge id=":1749584807_1" function="internal">
        <lane id=":1749584807_1_0" index="0" speed="8.33" length="0.29" shape="1691.89,867.12 1692.18,867.09"/>
    </edge>
    <edge id=":1749584808_0" function="internal">
        <lane id=":1749584808_0_0" index="0" speed="8.33" length="0.25" shape="1667.43,872.83 1667.18,872.86"/>
    </edge>
    <edge id=":1749584808_1" function="internal">
        <lane id=":1749584808_1_0" index="0" speed="8.33" length="0.31" shape="1666.80,869.68 1667.11,869.64"/>
    </edge>
    <edge id=":1750917593_0" function="internal">
        <lane id=":1750917593_0_0" index="0" speed="8.33" length="0.10" shape="2451.85,702.53 2451.91,702.64"/>
        <lane id=":1750917593_0_1" index="1" speed="8.33" length="0.10" shape="2449.01,704.00 2449.03,704.04"/>
    </edge>
    <edge id=":1756041738_0" function="internal">
        <lane id=":1756041738_0_0" index="0" speed="8.33" length="1.19" shape="1745.99,512.99 1746.12,514.14"/>
        <lane id=":1756041738_0_1" index="1" speed="8.33" length="1.19" shape="1749.17,512.63 1749.31,513.84"/>
    </edge>
    <edge id=":1757441427_0" function="internal">
        <lane id=":1757441427_0_0" index="0" speed="13.89" length="8.53" shape="1546.31,1430.60 1544.09,1431.72 1542.91,1433.19 1541.74,1434.66 1539.52,1435.82"/>
        <lane id=":1757441427_0_1" index="1" speed="13.89" length="8.53" shape="1545.48,1427.51 1543.24,1428.64 1542.05,1430.10 1540.87,1431.58 1538.64,1432.75"/>
        <lane id=":1757441427_0_2" index="2" speed="13.89" length="8.53" shape="1545.48,1427.51 1537.75,1429.67"/>
    </edge>
    <edge id=":17777144_0" function="internal">
        <lane id=":17777144_0_0" index="0" speed="6.46" length="9.03" shape="653.02,1205.53 650.54,1205.69 648.73,1206.60 647.57,1208.28 647.07,1210.71"/>
    </edge>
    <edge id=":17777144_1" function="internal">
        <lane id=":17777144_1_0" index="0" speed="13.89" length="14.68" shape="653.02,1205.53 638.36,1204.33"/>
        <lane id=":17777144_1_1" index="1" speed="13.89" length="14.68" shape="653.27,1202.34 638.63,1201.14"/>
        <lane id=":17777144_1_2" index="2" speed="13.89" length="14.68" shape="653.52,1199.15 638.90,1197.95"/>
        <lane id=":17777144_1_3" index="3" speed="13.89" length="14.68" shape="653.78,1195.96 639.17,1194.76"/>
    </edge>
    <edge id=":17777144_5" function="internal">
        <lane id=":17777144_5_0" index="0" speed="7.36" length="11.97" shape="653.78,1195.96 649.85,1195.30 647.13,1194.01 645.60,1192.12 645.27,1189.60"/>
    </edge>
    <edge id=":17777144_6" function="internal">
        <lane id=":17777144_6_0" index="0" speed="11.11" length="20.85" shape="648.45,1189.90 647.07,1210.71"/>
    </edge>
    <edge id=":17777144_7" function="internal">
        <lane id=":17777144_7_0" index="0" speed="7.36" length="11.76" shape="648.45,1189.90 647.67,1192.31 645.87,1193.92 643.03,1194.74 639.17,1194.76"/>
    </edge>
    <edge id=":17777144_8" function="internal">
        <lane id=":17777144_8_0" index="0" speed="3.65" length="4.67" shape="648.45,1189.90 647.54,1191.02 646.71,1191.34 645.95,1190.87 645.27,1189.60"/>
    </edge>
    <edge id=":17777144_9" function="internal">
        <lane id=":17777144_9_0" index="0" speed="6.69" length="9.40" shape="643.88,1210.52 643.66,1208.00 642.67,1206.13 640.90,1204.90 638.36,1204.33"/>
    </edge>
    <edge id=":17777144_10" function="internal">
        <lane id=":17777144_10_0" index="0" speed="11.11" length="20.96" shape="643.88,1210.52 645.27,1189.60"/>
    </edge>
    <edge id=":17777144_11" function="internal">
        <lane id=":17777144_11_0" index="0" speed="3.65" length="4.67" shape="643.88,1210.52 644.75,1209.37 645.57,1209.02 646.35,1209.46 647.07,1210.71"/>
    </edge>
    <edge id=":17777145_0" function="internal">
        <lane id=":17777145_0_0" index="0" speed="7.14" length="9.82" shape="925.43,1232.57 924.84,1230.67 923.39,1229.23 921.06,1228.24 917.85,1227.71"/>
    </edge>
    <edge id=":17777145_1" function="internal">
        <lane id=":17777145_1_0" index="0" speed="11.11" length="19.84" shape="925.43,1232.57 924.08,1212.78"/>
    </edge>
    <edge id=":17777145_2" function="internal">
        <lane id=":17777145_2_0" index="0" speed="3.65" length="4.67" shape="925.43,1232.57 926.14,1231.32 926.91,1230.87 927.74,1231.21 928.62,1232.36"/>
    </edge>
    <edge id=":17777145_3" function="internal">
        <lane id=":17777145_3_0" index="0" speed="5.61" length="7.24" shape="933.91,1229.15 931.50,1229.15 929.82,1229.69 928.85,1230.75 928.62,1232.36"/>
    </edge>
    <edge id=":17777145_4" function="internal">
        <lane id=":17777145_4_0" index="0" speed="13.89" length="16.19" shape="933.91,1229.15 917.85,1227.71"/>
        <lane id=":17777145_4_1" index="1" speed="13.89" length="16.19" shape="934.22,1225.96 918.11,1224.52"/>
        <lane id=":17777145_4_2" index="2" speed="13.89" length="16.19" shape="934.52,1222.78 918.38,1221.33"/>
        <lane id=":17777145_4_3" index="3" speed="13.89" length="16.19" shape="934.82,1219.59 918.64,1218.14"/>
    </edge>
    <edge id=":17777145_8" function="internal">
        <lane id=":17777145_8_0" index="0" speed="8.41" length="13.83" shape="934.82,1219.59 930.27,1218.80 926.96,1217.39 924.90,1215.39 924.08,1212.78"/>
    </edge>
    <edge id=":17777145_9" function="internal">
        <lane id=":17777145_9_0" index="0" speed="11.11" length="19.84" shape="927.27,1212.56 928.62,1232.36"/>
    </edge>
    <edge id=":17777145_10" function="internal">
        <lane id=":17777145_10_0" index="0" speed="7.05" length="12.01" shape="927.27,1212.56 926.89,1215.28 925.33,1217.12 922.58,1218.07 918.64,1218.14"/>
    </edge>
    <edge id=":17777145_11" function="internal">
        <lane id=":17777145_11_0" index="0" speed="3.65" length="4.67" shape="927.27,1212.56 926.56,1213.81 925.78,1214.26 924.96,1213.92 924.08,1212.78"/>
    </edge>
    <edge id=":1837751357_0" function="internal">