<edges>
	<edge id="828860828_7737382874_370624773_7737382874" from="7737382874" to="370624773" numLanes="1" speed="8.33" />
	<edge id="4410427_26784925_26784946_26784925" from="26784925" to="5252959192" numLanes="2" speed="13.89" />
	<edge id="4410427_26784925_26784946_5252959192" from="5252959192" to="3724271160" numLanes="2" speed="13.89" />
	<edge id="4410427_26784925_26784946_3724271160" from="3724271160" to="4551434759" numLanes="2" speed="13.89" />
	<edge id="4410427_26784925_26784946_4551434759" from="4551434759" to="26784946" numLanes="2" speed="13.89" />
	<edge id="4515848_17777145_26736188_17777145" from="17777145" to="26736188" numLanes="1" speed="13.89" />
	<edge id="618449093_5845560525_5845560524_5845560525" from="5845560525" to="5845560524" numLanes="1" speed="13.89" />
	<edge id="480240233_102918593_27409541_102918593" from="102918593" to="6221678518" numLanes="1" speed="8.33" />
	<edge id="480240233_102918593_27409541_6221678518" from="6221678518" to="6221678516" numLanes="1" speed="8.33" />
	<edge id="480240233_102918593_27409541_6221678516" from="6221678516" to="1227903974" numLanes="1" speed="8.33" />
	<edge id="480240233_102918593_27409541_1227903974" from="1227903974" to="3724261270" numLanes="1" speed="8.33" />
	<edge id="480240233_102918593_27409541_3724261270" from="3724261270" to="4849501103" numLanes="1" speed="8.33" />
	<edge id="480240233_102918593_27409541_4849501103" from="4849501103" to="27409541" numLanes="1" speed="8.33" />
	<edge id="4515853_26784919_26784918_26784919" from="26784919" to="26784918" numLanes="1" speed="13.89" />
	<edge id="163209067_1749584808_1749584807_1749584808" from="1749584808" to="1749584807" numLanes="1" speed="8.33" />
	<edge id="168890013_26784922_26682519_26784922" from="26784922" to="5739300746" numLanes="1" speed="8.33" />
	<edge id="168890013_26784922_26682519_5739300746" from="5739300746" to="6221678517" numLanes="1" speed="8.33" />
	<edge id="168890013_26784922_26682519_6221678517" from="6221678517" to="6221678519" numLanes="1" speed="8.33" />
	<edge id="168890013_26784922_26682519_6221678519" from="6221678519" to="26682519" numLanes="1" speed="8.33" />
	<edge id="302416096_3066762533_1277967223_3066762533" from="3066762533" to="5198725474" numLanes="3" speed="8.33" />
	<edge id="302416096_3066762533_1277967223_5198725474" from="5198725474" to="3951898325" numLanes="3" speed="8.33" />
	<edge id="302416096_3066762533_1277967223_3951898325" from="3951898325" to="5845546374" numLanes="3" speed="8.33" />
	<edge id="302416096_3066762533_1277967223_5845546374" from="5845546374" to="5845546382" numLanes="3" speed="8.33" />
	<edge id="302416096_3066762533_1277967223_5845546382" from="5845546382" to="1277967223" numLanes="3" speed="8.33" />
	<edge id="823947542_7692836675_5845560525_7692836675" from="7692836675" to="5126857178" numLanes="2" speed="13.89" />
	<edge id="823947542_7692836675_5845560525_5126857178" from="5126857178" to="5845560525" numLanes="2" speed="13.89" />
	<edge id="4531800_26869179_26704545_26869179" from="26869179" to="26704545" numLanes="1" speed="13.89" />
	<edge id="191543828_26763079_26763089_26763079" from="26763079" to="26763089" numLanes="2" speed="13.89" />
	<edge id="23352698_27537749_5194290241_27537749" from="27537749" to="5194290241" numLanes="1" speed="13.89" />
	<edge id="4377785_324753730_400912982_324753730" from="324753730" to="3935677413" numLanes="3" speed="13.89" />
	<edge id="4377785_324753730_400912982_3935677413" from="3935677413" to="400912982" numLanes="3" speed="13.89" />
	<edge id="610847999_5784621456_4853814386_5784621456" from="5784621456" to="5784619550" numLanes="2" speed="13.89" />
	<edge id="610847999_5784621456_4853814386_5784619550" from="5784619550" to="5784621457" numLanes="2" speed="13.89" />
	<edge id="610847999_5784621456_4853814386_5784621457" from="5784621457" to="4853814386" numLanes="2" speed="13.89" />
	<edge id="37540946_26762983_26762974_26762983" from="26762983" to="4382361812" numLanes="4" speed="8.33" />
	<edge id="37540946_26762983_26762974_4382361812" from="4382361812" to="1560791970" numLanes="4" speed="8.33" />
	<edge id="37540946_26762983_26762974_1560791970" from="1560791970" to="1560792024" numLanes="4" speed="8.33" />
	<edge id="37540946_26762983_26762974_1560792024" from="1560792024" to="900995750" numLanes="4" speed="8.33" />
	<edge id="37540946_26762983_26762974_900995750" from="900995750" to="1560792066" numLanes="4" speed="8.33" />
	<edge id="37540946_26762983_26762974_1560792066" from="1560792066" to="4382361819" numLanes="4" speed="8.33" />
	<edge id="37540946_26762983_26762974_4382361819" from="4382361819" to="1560792092" numLanes="4" speed="8.33" />
	<edge id="37540946_26762983_26762974_1560792092" from="1560792092" to="26762974" numLanes="4" speed="8.33" />
	<edge id="403736227_26784937_26784942_26784937" from="26784937" to="26784941" numLanes="1" speed="8.33" />
	<edge id="403736227_26784937_26784942_26784941" from="26784941" to="1228298485" numLanes="1" speed="8.33" />
	<edge id="403736227_26784937_26784942_1228298485" from="1228298485" to="26784942" numLanes="1" speed="8.33" />
	<edge id="335462911_3425667210_5194290241_3425667210" from="3425667210" to="654356118" numLanes="5" speed="13.89" />
	<edge id="335462911_3425667210_5194290241_654356118" from="654356118" to="3684182887" numLanes="5" speed="13.89" />
	<edge id="335462911_3425667210_5194290241_3684182887" from="3684182887" to="3368326856" numLanes="5" speed="13.89" />
	<edge id="335462911_3425667210_5194290241_3368326856" from="3368326856" to="5194290241" numLanes="5" speed="13.89" />
	<edge id="145933306_26736183_2021286624_26736183" from="26736183" to="2021286624" numLanes="1" speed="8.33" />
	<edge id="98996700_26736189_1145332282_26736189" from="26736189" to="2716909760" numLanes="1" speed="8.33" />
	<edge id="98996700_26736189_1145332282_2716909760" from="2716909760" to="1145332282" numLanes="1" speed="8.33" />
	<edge id="490356846_900995749_26762967_900995749" from="900995749" to="4382361795" numLanes="2" speed="8.33" />
	<edge id="490356846_900995749_26762967_4382361795" from="4382361795" to="4382361797" numLanes="2" speed="8.33" />
	<edge id="490356846_900995749_26762967_4382361797" from="4382361797" to="26762967" numLanes="2" speed="8.33" />
	<edge id="4410427_26682519_26736168_26682519" from="26682519" to="610219731" numLanes="2" speed="13.89" />
	<edge id="4410427_26682519_26736168_610219731" from="610219731" to="2129678477" numLanes="2" speed="13.89" />
	<edge id="4410427_26682519_26736168_2129678477" from="2129678477" to="2129678476" numLanes="2" speed="13.89" />
	<edge id="4410427_26682519_26736168_2129678476" from="2129678476" to="2129678474" numLanes="2" speed="13.89" />
	<edge id="4410427_26682519_26736168_2129678474" from="2129678474" to="610219732" numLanes="2" speed="13.89" />
	<edge id="4410427_26682519_26736168_610219732" from="610219732" to="2129678471" numLanes="2" speed="13.89" />
	<edge id="4410427_26682519_26736168_2129678471" from="2129678471" to="26682516" numLanes="2" speed="13.89" />
	<edge id="4410427_26682519_26736168_26682516" from="26682516" to="26736168" numLanes="2" speed="13.89" />
	<edge id="4515626_26736143_7115947089_26736143" from="26736143" to="7115947089" numLanes="1" speed="8.33" />
	<edge id="133743711_1321325636_1757441427_1321325636" from="1321325636" to="26938228" numLanes="2" speed="13.89" />
	<edge id="133743711_1321325636_1757441427_26938228" from="26938228" to="1910194499" numLanes="2" speed="13.89" />
	<edge id="133743711_1321325636_1757441427_1910194499" from="1910194499" to="1023499966" numLanes="2" speed="13.89" />
	<edge id="133743711_1321325636_1757441427_1023499966" from="1023499966" to="26938198" numLanes="2" speed="13.89" />
	<edge id="133743711_1321325636_1757441427_26938198" from="26938198" to="1757437102" numLanes="2" speed="13.89" />
	<edge id="133743711_1321325636_1757441427_1757437102" from="1757437102" to="1023499910" numLanes="2" speed="13.89" />
	<edge id="133743711_1321325636_1757441427_1023499910" from="1023499910" to="1757437103" numLanes="2" speed="13.89" />
	<edge id="133743711_1321325636_1757441427_1757437103" from="1757437103" to="1757437104" numLanes="2" speed="13.89" />
	<edge id="133743711_1321325636_1757441427_1757437104" from="1757437104" to="1023499941" numLanes="2" speed="13.89" />
	<edge id="133743711_1321325636_1757441427_1023499941" from="1023499941" to="1979746296" numLanes="2" speed="13.89" />
	<edge id="133743711_1321325636_1757441427_1979746296" from="1979746296" to="1757437105" numLanes="2" speed="13.89" />
	<edge id="133743711_1321325636_1757441427_1757437105" from="1757437105" to="4397807257" numLanes="2" speed="13.89" />
	<edge id="133743711_1321325636_1757441427_4397807257" from="4397807257" to="1757441427" numLanes="2" speed="13.89" />
	<edge id="231887171_1980757232_26704485_1980757232" from="1980757232" to="7896584852" numLanes="1" speed="8.33" />
	<edge id="231887171_1980757232_26704485_7896584852" from="7896584852" to="2739330882" numLanes="1" speed="8.33" />
	<edge id="231887171_1980757232_26704485_2739330882" from="2739330882" to="6427824849" numLanes="1" speed="8.33" />
	<edge id="231887171_1980757232_26704485_6427824849" from="6427824849" to="572519532" numLanes="1" speed="8.33" />
	<edge id="231887171_1980757232_26704485_572519532" from="572519532" to="26704485" numLanes="1" speed="8.33" />
	<edge id="4491645_26704482_26704483_26704482" from="26704482" to="4782446440" numLanes="1" speed="8.33" />
	<edge id="4491645_26704482_26704483_4782446440" from="4782446440" to="1932523033" numLanes="1" speed="8.33" />
	<edge id="4491645_26704482_26704483_1932523033" from="1932523033" to="6766195049" numLanes="1" speed="8.33" />
	<edge id="4491645_26704482_26704483_6766195049" from="6766195049" to="5462098210" numLanes="1" speed="8.33" />
	<edge id="4491645_26704482_26704483_5462098210" from="5462098210" to="26704483" numLanes="1" speed="8.33" />
	<edge id="823947565_26704054_26704546_26704054" from="26704054" to="4520362257" numLanes="2" speed="8.33" />
	<edge id="823947565_26704054_26704546_4520362257" from="4520362257" to="5845551787" numLanes="2" speed="8.33" />
	<edge id="823947565_26704054_26704546_5845551787" from="5845551787" to="4404288511" numLanes="2" speed="8.33" />
	<edge id="823947565_26704054_26704546_4404288511" from="4404288511" to="26704546" numLanes="2" speed="8.33" />
	<edge id="305422037_26704503_3100460451_26704503" from="26704503" to="3180637037" numLanes="1" speed="8.33" />
	<edge id="305422037_26704503_3100460451_3180637037" from="3180637037" to="3180637176" numLanes="1" speed="8.33" />
	<edge id="305422037_26704503_3100460451_3180637176" from="3180637176" to="3180637240" numLanes="1" speed="8.33" />
	<edge id="305422037_26704503_3100460451_3180637240" from="3180637240" to="3180637425" numLanes="1" speed="8.33" />
	<edge id="305422037_26704503_3100460451_3180637425" from="3180637425" to="3180637605" numLanes="1" speed="8.33" />
	<edge id="305422037_26704503_3100460451_3180637605" from="3180637605" to="3100460451" numLanes="1" speed="8.33" />
	<edge id="4490163_26736157_263703831_26736157" from="26736157" to="6146127558" numLanes="1" speed="8.33" />
	<edge id="4490163_26736157_263703831_6146127558" from="6146127558" to="6146127554" numLanes="1" speed="8.33" />
	<edge id="4490163_26736157_263703831_6146127554" from="6146127554" to="2727233551" numLanes="1" speed="8.33" />
	<edge id="4490163_26736157_263703831_2727233551" from="2727233551" to="5479064922" numLanes="1" speed="8.33" />
	<edge id="4490163_26736157_263703831_5479064922" from="5479064922" to="263703831" numLanes="1" speed="8.33" />
	<edge id="166436748_268050708_26704447_268050708" from="268050708" to="1229879571" numLanes="1" speed="13.89" />
	<edge id="166436748_268050708_26704447_1229879571" from="1229879571" to="3791061868" numLanes="1" speed="13.89" />
	<edge id="166436748_268050708_26704447_3791061868" from="3791061868" to="1837751366" numLanes="1" speed="13.89" />
	<edge id="166436748_268050708_26704447_1837751366" from="1837751366" to="2791258279" numLanes="1" speed="13.89" />
	<edge id="166436748_268050708_26704447_2791258279" from="2791258279" to="26704447" numLanes="1" speed="13.89" />
	<edge id="163209069_1749584806_3886445946_1749584806" from="1749584806" to="2705435586" numLanes="1" speed="8.33" />
	<edge id="163209069_1749584806_3886445946_2705435586" from="2705435586" to="3087285889" numLanes="1" speed="8.33" />
	<edge id="163209069_1749584806_3886445946_3087285889" from="3087285889" to="3886445946" numLanes="1" speed="8.33" />
	<edge id="163209068_1749584807_26704049_1749584807" from="1749584807" to="5020407100" numLanes="1" speed="8.33" />
	<edge id="163209068_1749584807_26704049_5020407100" from="5020407100" to="26704049" numLanes="1" speed="8.33" />
	<edge id="724621035_26736196_26736176_26736196" from="26736196" to="3645267308" numLanes="2" speed="8.33" />
	<edge id="724621035_26736196_26736176_3645267308" from="3645267308" to="3951565130" numLanes="2" speed="8.33" />
	<edge id="724621035_26736196_26736176_3951565130" from="3951565130" to="6146138102" numLanes="2" speed="8.33" />
	<edge id="724621035_26736196_26736176_6146138102" from="6146138102" to="6146138105" numLanes="2" speed="8.33" />
	<edge id="724621035_26736196_26736176_6146138105" from="6146138105" to="26736176" numLanes="2" speed="8.33" />
	<edge id="327805905_3346178031_26736159_3346178031" from="3346178031" to="4404288520" numLanes="3" speed="8.33" />
	<edge id="327805905_3346178031_26736159_4404288520" from="4404288520" to="5845539015" numLanes="3" speed="8.33" />
	<edge id="327805905_3346178031_26736159_5845539015" from="5845539015" to="26736159" numLanes="3" speed="8.33" />
	<edge id="37540947_26762967_26762983_26762967" from="26762967" to="26762983" numLanes="2" speed="13.89" />
	<edge id="165034514_60644033_5194290241_60644033" from="60644033" to="573214099" numLanes="1" speed="13.89" />
	<edge id="165034514_60644033_5194290241_573214099" from="573214099" to="1417401017" numLanes="1" speed="13.89" />
	<edge id="165034514_60644033_5194290241_1417401017" from="1417401017" to="3791061877" numLanes="1" speed="13.89" />
	<edge id="165034514_60644033_5194290241_3791061877" from="3791061877" to="2747243518" numLanes="1" speed="13.89" />
	<edge id="165034514_60644033_5194290241_2747243518" from="2747243518" to="5194290241" numLanes="1" speed="13.89" />
	<edge id="4381554_26704450_26704452_26704450" from="26704450" to="251105934" numLanes="1" speed="13.89" />
	<edge id="4381554_26704450_26704452_251105934" from="251105934" to="3367726926" numLanes="1" speed="13.89" />
	<edge id="4381554_26704450_26704452_3367726926" from="3367726926" to="251105930" numLanes="1" speed="13.89" />
	<edge id="4381554_26704450_26704452_251105930" from="251105930" to="26704451" numLanes="1" speed="13.89" />
	<edge id="4381554_26704450_26704452_26704451" from="26704451" to="3755855085" numLanes="1" speed="13.89" />
	<edge id="4381554_26704450_26704452_3755855085" from="3755855085" to="2756682032" numLanes="1" speed="13.89" />
	<edge id="4381554_26704450_26704452_2756682032" from="2756682032" to="5618327156" numLanes="1" speed="13.89" />
	<edge id="4381554_26704450_26704452_5618327156" from="5618327156" to="341364242" numLanes="1" speed="13.89" />
	<edge id="4381554_26704450_26704452_341364242" from="341364242" to="1837631937" numLanes="1" speed="13.89" />
	<edge id="4381554_26704450_26704452_1837631937" from="1837631937" to="3369118051" numLanes="1" speed="13.89" />
	<edge id="4381554_26704450_26704452_3369118051" from="3369118051" to="368020746" numLanes="1" speed="13.89" />
	<edge id="4381554_26704450_26704452_368020746" from="368020746" to="26704452" numLanes="1" speed="13.89" />
	<edge id="627460043_3275571361_5313824950_3275571361" from="3275571361" to="415838100" numLanes="3" speed="13.89" />
	<edge id="627460043_3275571361_5313824950_415838100" from="415838100" to="3791061796" numLanes="3" speed="13.89" />
	<edge id="627460043_3275571361_5313824950_3791061796" from="3791061796" to="654381359" numLanes="3" speed="13.89" />
	<edge id="627460043_3275571361_5313824950_654381359" from="654381359" to="5313824950" numLanes="3" speed="13.89" />
	<edge id="4471286_6604935388_26736188_6604935388" from="6604935388" to="7498134551" numLanes="1" speed="8.33" />
	<edge id="4471286_6604935388_26736188_7498134551" from="7498134551" to="2716909762" numLanes="1" speed="8.33" />
	<edge id="4471286_6604935388_26736188_2716909762" from="2716909762" to="2129678384" numLanes="1" speed="8.33" />
	<edge id="4471286_6604935388_26736188_2129678384" from="2129678384" to="26736188" numLanes="1" speed="8.33" />
	<edge id="30127237_27409724_27409693_27409724" from="27409724" to="1978290053" numLanes="1" speed="8.33" />
	<edge id="30127237_27409724_27409693_1978290053" from="1978290053" to="3237304100" numLanes="1" speed="8.33" />
	<edge id="30127237_27409724_27409693_3237304100" from="3237304100" to="3791061895" numLanes="1" speed="8.33" />
	<edge id="30127237_27409724_27409693_3791061895" from="3791061895" to="2468772501" numLanes="1" speed="8.33" />
	<edge id="30127237_27409724_27409693_2468772501" from="2468772501" to="27409693" numLanes="1" speed="8.33" />
	<edge id="32909782_26736188_26736200_26736188" from="26736188" to="4598380610" numLanes="4" speed="13.89" />
	<edge id="32909782_26736188_26736200_4598380610" from="4598380610" to="4782446448" numLanes="4" speed="13.89" />
	<edge id="32909782_26736188_26736200_4782446448" from="4782446448" to="4200454924" numLanes="4" speed="13.89" />
	<edge id="32909782_26736188_26736200_4200454924" from="4200454924" to="3900580935" numLanes="4" speed="13.89" />
	<edge id="32909782_26736188_26736200_3900580935" from="3900580935" to="3951565152" numLanes="4" speed="13.89" />
	<edge id="32909782_26736188_26736200_3951565152" from="3951565152" to="26736200" numLanes="4" speed="13.89" />
	<edge id="823947543_26762998_5845560523_26762998" from="26762998" to="4714152607" numLanes="2" speed="13.89" />
	<edge id="823947543_26762998_5845560523_4714152607" from="4714152607" to="1339061965" numLanes="2" speed="13.89" />
	<edge id="823947543_26762998_5845560523_1339061965" from="1339061965" to="5845560523" numLanes="2" speed="13.89" />
	<edge id="192158399_1992100022_408194196_1992100022" from="1992100022" to="408194196" numLanes="4" speed="13.89" />
	<edge id="4490166_26736200_26736199_26736200" from="26736200" to="8134156257" numLanes="1" speed="8.33" />
	<edge id="4490166_26736200_26736199_8134156257" from="8134156257" to="2130734537" numLanes="1" speed="8.33" />
	<edge id="4490166_26736200_26736199_2130734537" from="2130734537" to="26736199" numLanes="1" speed="8.33" />
	<edge id="152698992_26708460_263702166_26708460" from="26708460" to="5784633193" numLanes="4" speed="13.89" />
	<edge id="152698992_26708460_263702166_5784633193" from="5784633193" to="263702166" numLanes="4" speed="13.89" />
	<edge id="168889126_26784918_26784920_26784918" from="26784918" to="6146156305" numLanes="2" speed="8.33" />
	<edge id="168889126_26784918_26784920_6146156305" from="6146156305" to="3976479148" numLanes="2" speed="8.33" />
	<edge id="168889126_26784918_26784920_3976479148" from="3976479148" to="26784920" numLanes="2" speed="8.33" />
	<edge id="823947563_7692857985_26704545_7692857985" from="7692857985" to="26704545" numLanes="1" speed="8.33" />
	<edge id="823947569_5845560522_3951898354_5845560522" from="5845560522" to="1339061969" numLanes="1" speed="13.89" />
	<edge id="823947569_5845560522_3951898354_1339061969" from="1339061969" to="5845560526" numLanes="1" speed="13.89" />
	<edge id="823947569_5845560522_3951898354_5845560526" from="5845560526" to="3951898354" numLanes="1" speed="13.89" />
	<edge id="25418281_3935677404_261568494_3935677404" from="3935677404" to="261568494" numLanes="1" speed="13.89" />
	<edge id="112427848_26704519_26704548_26704519" from="26704519" to="1277963435" numLanes="1" speed="8.33" />
	<edge id="112427848_26704519_26704548_1277963435" from="1277963435" to="26704548" numLanes="1" speed="8.33" />
	<edge id="168889126_26784920_26727635_26784920" from="26784920" to="6146150795" numLanes="2" speed="8.33" />
	<edge id="168889126_26784920_26727635_6146150795" from="6146150795" to="6146150797" numLanes="2" speed="8.33" />
	<edge id="168889126_26784920_26727635_6146150797" from="6146150797" to="1137693327" numLanes="2" speed="8.33" />
	<edge id="168889126_26784920_26727635_1137693327" from="1137693327" to="1137693339" numLanes="2" speed="8.33" />
	<edge id="168889126_26784920_26727635_1137693339" from="1137693339" to="5758742723" numLanes="2" speed="8.33" />
	<edge id="168889126_26784920_26727635_5758742723" from="5758742723" to="6146143362" numLanes="2" speed="8.33" />
	<edge id="168889126_26784920_26727635_6146143362" from="6146143362" to="6146143366" numLanes="2" speed="8.33" />
	<edge id="168889126_26784920_26727635_6146143366" from="6146143366" to="26784954" numLanes="2" speed="8.33" />
	<edge id="168889126_26784920_26727635_26784954" from="26784954" to="6146143370" numLanes="2" speed="8.33" />
	<edge id="168889126_26784920_26727635_6146143370" from="6146143370" to="1137678948" numLanes="2" speed="8.33" />
	<edge id="168889126_26784920_26727635_1137678948" from="1137678948" to="1137678955" numLanes="2" speed="8.33" />
	<edge id="168889126_26784920_26727635_1137678955" from="1137678955" to="102918603" numLanes="2" speed="8.33" />
	<edge id="168889126_26784920_26727635_102918603" from="102918603" to="26662385" numLanes="2" speed="8.33" />
	<edge id="168889126_26784920_26727635_26662385" from="26662385" to="102918605" numLanes="2" speed="8.33" />
	<edge id="168889126_26784920_26727635_102918605" from="102918605" to="26727635" numLanes="2" speed="8.33" />
	<edge id="371175286_312778949_17777145_312778949" from="312778949" to="3900580941" numLanes="4" speed="13.89" />
	<edge id="371175286_312778949_17777145_3900580941" from="3900580941" to="3951565153" numLanes="4" speed="13.89" />
	<edge id="371175286_312778949_17777145_3951565153" from="3951565153" to="4782446449" numLanes="4" speed="13.89" />
	<edge id="371175286_312778949_17777145_4782446449" from="4782446449" to="4598380609" numLanes="4" speed="13.89" />
	<edge id="371175286_312778949_17777145_4598380609" from="4598380609" to="17777145" numLanes="4" speed="13.89" />
	<edge id="302422396_3066797048_26736201_3066797048" from="3066797048" to="5845538957" numLanes="3" speed="8.33" />
	<edge id="302422396_3066797048_26736201_5845538957" from="5845538957" to="5845538959" numLanes="3" speed="8.33" />
	<edge id="302422396_3066797048_26736201_5845538959" from="5845538959" to="26736201" numLanes="3" speed="8.33" />
	<edge id="25418281_261568494_3935677404_261568494" from="261568494" to="3935677404" numLanes="1" speed="13.89" />
	<edge id="163209069_26704053_3886445946_26704053" from="26704053" to="5140314050" numLanes="1" speed="8.33" />
	<edge id="163209069_26704053_3886445946_5140314050" from="5140314050" to="3713441047" numLanes="1" speed="8.33" />
	<edge id="163209069_26704053_3886445946_3713441047" from="3713441047" to="3713441052" numLanes="1" speed="8.33" />
	<edge id="163209069_26704053_3886445946_3713441052" from="3713441052" to="1131251450" numLanes="1" speed="8.33" />
	<edge id="163209069_26704053_3886445946_1131251450" from="1131251450" to="3886445946" numLanes="1" speed="8.33" />
	<edge id="57128181_26977832_60644033_26977832" from="26977832" to="573214096" numLanes="1" speed="13.89" />
	<edge id="57128181_26977832_60644033_573214096" from="573214096" to="27537250" numLanes="1" speed="13.89" />
	<edge id="57128181_26977832_60644033_27537250" from="27537250" to="573214097" numLanes="1" speed="13.89" />
	<edge id="57128181_26977832_60644033_573214097" from="573214097" to="3368334924" numLanes="1" speed="13.89" />
	<edge id="57128181_26977832_60644033_3368334924" from="3368334924" to="415841127" numLanes="1" speed="13.89" />
	<edge id="57128181_26977832_60644033_415841127" from="415841127" to="60644033" numLanes="1" speed="13.89" />
	<edge id="109612320_628156655_26938196_628156655" from="628156655" to="4782446443" numLanes="1" speed="8.33" />
	<edge id="109612320_628156655_26938196_4782446443" from="4782446443" to="5791621141" numLanes="1" speed="8.33" />
	<edge id="109612320_628156655_26938196_5791621141" from="5791621141" to="7294455427" numLanes="1" speed="8.33" />
	<edge id="109612320_628156655_26938196_7294455427" from="7294455427" to="26875019" numLanes="1" speed="8.33" />
	<edge id="109612320_628156655_26938196_26875019" from="26875019" to="5791607373" numLanes="1" speed="8.33" />
	<edge id="109612320_628156655_26938196_5791607373" from="5791607373" to="1966956981" numLanes="1" speed="8.33" />
	<edge id="109612320_628156655_26938196_1966956981" from="1966956981" to="26938196" numLanes="1" speed="8.33" />
	<edge id="31621013_26784922_27409001_26784922" from="26784922" to="27409001" numLanes="1" speed="8.33" />
	<edge id="4556844_26875284_26938189_26875284" from="26875284" to="660204104" numLanes="1" speed="8.33" />
	<edge id="4556844_26875284_26938189_660204104" from="660204104" to="660204068" numLanes="1" speed="8.33" />
	<edge id="4556844_26875284_26938189_660204068" from="660204068" to="1998567056" numLanes="1" speed="8.33" />
	<edge id="4556844_26875284_26938189_1998567056" from="1998567056" to="267620333" numLanes="1" speed="8.33" />
	<edge id="4556844_26875284_26938189_267620333" from="267620333" to="1904834618" numLanes="1" speed="8.33" />
	<edge id="4556844_26875284_26938189_1904834618" from="1904834618" to="26938189" numLanes="1" speed="8.33" />
	<edge id="4400368_26704584_654381284_26704584" from="26704584" to="1560792385" numLanes="3" speed="13.89" />
	<edge id="4400368_26704584_654381284_1560792385" from="1560792385" to="251106774" numLanes="3" speed="13.89" />
	<edge id="4400368_26704584_654381284_251106774" from="251106774" to="1560792377" numLanes="3" speed="13.89" />
	<edge id="4400368_26704584_654381284_1560792377" from="1560792377" to="251150124" numLanes="3" speed="13.89" />
	<edge id="4400368_26704584_654381284_251150124" from="251150124" to="1560792373" numLanes="3" speed="13.89" />
	<edge id="4400368_26704584_654381284_1560792373" from="1560792373" to="1023689630" numLanes="3" speed="13.89" />
	<edge id="4400368_26704584_654381284_1023689630" from="1023689630" to="3791061780" numLanes="3" speed="13.89" />
	<edge id="4400368_26704584_654381284_3791061780" from="3791061780" to="654381284" numLanes="3" speed="13.89" />
	<edge id="168890013_26682519_26784922_26682519" from="26682519" to="6221678519" numLanes="1" speed="8.33" />
	<edge id="168890013_26682519_26784922_6221678519" from="6221678519" to="6221678517" numLanes="1" speed="8.33" />
	<edge id="168890013_26682519_26784922_6221678517" from="6221678517" to="5739300746" numLanes="1" speed="8.33" />
	<edge id="168890013_26682519_26784922_5739300746" from="5739300746" to="26784922" numLanes="1" speed="8.33" />
	<edge id="38587211_26704523_26704494_26704523" from="26704523" to="5382617225" numLanes="1" speed="8.33" />
	<edge id="38587211_26704523_26704494_5382617225" from="5382617225" to="26704494" numLanes="1" speed="8.33" />
	<edge id="209831289_27409746_26938187_27409746" from="27409746" to="1440831298" numLanes="1" speed="8.33" />
	<edge id="209831289_27409746_26938187_1440831298" from="1440831298" to="3217119458" numLanes="1" speed="8.33" />
	<edge id="209831289_27409746_26938187_3217119458" from="3217119458" to="2684051385" numLanes="1" speed="8.33" />
	<edge id="209831289_27409746_26938187_2684051385" from="2684051385" to="26938187" numLanes="1" speed="8.33" />
	<edge id="152699780_27409751_27409746_27409751" from="27409751" to="4397807270" numLanes="1" speed="8.33" />
	<edge id="152699780_27409751_27409746_4397807270" from="4397807270" to="4603755592" numLanes="1" speed="8.33" />
	<edge id="152699780_27409751_27409746_4603755592" from="4603755592" to="27409746" numLanes="1" speed="8.33" />
	<edge id="454003207_1122075123_26704059_1122075123" from="1122075123" to="4903713946" numLanes="2" speed="8.33" />
	<edge id="454003207_1122075123_26704059_4903713946" from="4903713946" to="7798570864" numLanes="2" speed="8.33" />
	<edge id="454003207_1122075123_26704059_7798570864" from="7798570864" to="7798570866" numLanes="2" speed="8.33" />
	<edge id="454003207_1122075123_26704059_7798570866" from="7798570866" to="5496911273" numLanes="2" speed="8.33" />
	<edge id="454003207_1122075123_26704059_5496911273" from="5496911273" to="5496911268" numLanes="2" speed="8.33" />
	<edge id="454003207_1122075123_26704059_5496911268" from="5496911268" to="26704059" numLanes="2" speed="8.33" />
	<edge id="4495307_26736178_26736187_26736178" from="26736178" to="4932289024" numLanes="1" speed="8.33" />
	<edge id="4495307_26736178_26736187_4932289024" from="4932289024" to="4932288719" numLanes="1" speed="8.33" />
	<edge id="4495307_26736178_26736187_4932288719" from="4932288719" to="26736187" numLanes="1" speed="8.33" />
	<edge id="302429272_3066874439_267620337_3066874439" from="3066874439" to="3961281924" numLanes="3" speed="13.89" />
	<edge id="302429272_3066874439_267620337_3961281924" from="3961281924" to="4277479606" numLanes="3" speed="13.89" />
	<edge id="302429272_3066874439_267620337_4277479606" from="4277479606" to="6020247555" numLanes="3" speed="13.89" />
	<edge id="302429272_3066874439_267620337_6020247555" from="6020247555" to="267620337" numLanes="3" speed="13.89" />
	<edge id="618449092_5845560522_5845560523_5845560522" from="5845560522" to="5845560523" numLanes="1" speed="13.89" />
	<edge id="4436884_26736183_20246277_26736183" from="26736183" to="287593081" numLanes="1" speed="8.33" />
	<edge id="4436884_26736183_20246277_287593081" from="287593081" to="5759471848" numLanes="1" speed="8.33" />
	<edge id="4436884_26736183_20246277_5759471848" from="5759471848" to="20246277" numLanes="1" speed="8.33" />
	<edge id="52578338_654381390_21487144_654381390" from="654381390" to="251106772" numLanes="3" speed="13.89" />