<connections>
	<connection from="828860828_7737382874_370624773_7737382874" to="828860828_370624773_7737382874_370624773" />
	<connection from="828860828_7737382874_370624773_7737382874" to="4490171_370624773_26869179_370624773" />
	<connection from="4410427_26784925_26784946_26784925" to="4410427_26784925_26784946_5252959192" />
	<connection from="4410427_26784925_26784946_5252959192" to="4410427_26784925_26784946_3724271160" />
	<connection from="4410427_26784925_26784946_3724271160" to="4410427_26784925_26784946_4551434759" />
	<connection from="4410427_26784925_26784946_4551434759" to="4410427_26784946_26682519_26784946" />
	<connection from="4410427_26784925_26784946_4551434759" to="4495206_26784946_102918596_26784946" />
	<connection from="4410427_26784925_26784946_4551434759" to="4495206_26784946_26784944_26784946" />
	<connection from="4515848_17777145_26736188_17777145" to="4515848_26736188_17777145_26736188" />
	<connection from="4515848_17777145_26736188_17777145" to="32909782_26736188_26736200_26736188" />
	<connection from="4515848_17777145_26736188_17777145" to="4471286_26736188_6604935388_26736188" />
	<connection from="618449093_5845560525_5845560524_5845560525" to="618449093_5845560524_5845560525_5845560524" />
	<connection from="618449093_5845560525_5845560524_5845560525" to="823947569_5845560524_7692857987_5845560524" />
	<connection from="480240233_102918593_27409541_102918593" to="480240233_102918593_27409541_6221678518" />
	<connection from="480240233_102918593_27409541_6221678518" to="480240233_102918593_27409541_6221678516" />
	<connection from="480240233_102918593_27409541_6221678516" to="480240233_102918593_27409541_1227903974" />
	<connection from="480240233_102918593_27409541_1227903974" to="480240233_102918593_27409541_3724261270" />
	<connection from="480240233_102918593_27409541_3724261270" to="480240233_102918593_27409541_4849501103" />
	<connection from="480240233_102918593_27409541_4849501103" to="31621015_27409541_27409576_27409541" />
	<connection from="480240233_102918593_27409541_4849501103" to="87687993_27409541_17777145_27409541" />
	<connection from="480240233_102918593_27409541_4849501103" to="480240233_27409541_102918593_27409541" />
	<connection from="480240233_102918593_27409541_4849501103" to="4515847_27409541_26938195_27409541" />
	<connection from="4515853_26784919_26784918_26784919" to="4515853_26784918_26784919_26784918" />
	<connection from="4515853_26784919_26784918_26784919" to="168889126_26784918_26784920_26784918" />
	<connection from="4515853_26784919_26784918_26784919" to="4495207_26784918_26784924_26784918" />
	<connection from="163209067_1749584808_1749584807_1749584808" to="163209067_1749584807_1749584808_1749584807" />
	<connection from="163209067_1749584808_1749584807_1749584808" to="163209068_1749584807_26704049_1749584807" />
	<connection from="168890013_26784922_26682519_26784922" to="168890013_26784922_26682519_5739300746" />
	<connection from="168890013_26784922_26682519_5739300746" to="168890013_26784922_26682519_6221678517" />
	<connection from="168890013_26784922_26682519_6221678517" to="168890013_26784922_26682519_6221678519" />
	<connection from="168890013_26784922_26682519_6221678519" to="4410427_26682519_26736168_26682519" />
	<connection from="168890013_26784922_26682519_6221678519" to="31621014_26682519_102918593_26682519" />
	<connection from="168890013_26784922_26682519_6221678519" to="168890013_26682519_26784922_26682519" />
	<connection from="302416096_3066762533_1277967223_3066762533" to="302416096_3066762533_1277967223_5198725474" />
	<connection from="302416096_3066762533_1277967223_5198725474" to="302416096_3066762533_1277967223_3951898325" />
	<connection from="302416096_3066762533_1277967223_3951898325" to="302416096_3066762533_1277967223_5845546374" />
	<connection from="302416096_3066762533_1277967223_5845546374" to="302416096_3066762533_1277967223_5845546382" />
	<connection from="302416096_3066762533_1277967223_5845546382" to="823947547_1277967223_26869178_1277967223" />
	<connection from="302416096_3066762533_1277967223_5845546382" to="112442380_1277967223_1277967229_1277967223" />
	<connection from="823947542_7692836675_5845560525_7692836675" to="823947542_7692836675_5845560525_5126857178" />
	<connection from="823947542_7692836675_5845560525_5126857178" to="618449093_5845560525_5845560524_5845560525" />
	<connection from="823947542_7692836675_5845560525_5126857178" to="823947542_5845560525_26762998_5845560525" />
	<connection from="4531800_26869179_26704545_26869179" to="823947563_26704545_3066762534_26704545" />
	<connection from="4531800_26869179_26704545_26869179" to="4531800_26704545_26869179_26704545" />
	<connection from="4531800_26869179_26704545_26869179" to="4531799_26704545_26704523_26704545" />
	<connection from="191543828_26763079_26763089_26763079" to="191543830_26763089_26736170_26763089" />
	<connection from="23352698_27537749_5194290241_27537749" to="165034514_5194290241_60644033_5194290241" />
	<connection from="23352698_27537749_5194290241_27537749" to="355562350_5194290241_27537748_5194290241" />
	<connection from="23352698_27537749_5194290241_27537749" to="23352698_5194290241_27537749_5194290241" />
	<connection from="4377785_324753730_400912982_324753730" to="4377785_324753730_400912982_3935677413" />
	<connection from="4377785_324753730_400912982_3935677413" to="4377785_400912982_6211151202_400912982" />
	<connection from="4377785_324753730_400912982_3935677413" to="4384717_400912982_292298701_400912982" />
	<connection from="610847999_5784621456_4853814386_5784621456" to="610847999_5784621456_4853814386_5784619550" />
	<connection from="610847999_5784621456_4853814386_5784619550" to="610847999_5784621456_4853814386_5784621457" />
	<connection from="610847999_5784621456_4853814386_5784621457" to="4490162_4853814386_1321335395_4853814386" />
	<connection from="37540946_26762983_26762974_26762983" to="37540946_26762983_26762974_4382361812" />
	<connection from="37540946_26762983_26762974_4382361812" to="37540946_26762983_26762974_1560791970" />
	<connection from="37540946_26762983_26762974_1560791970" to="37540946_26762983_26762974_1560792024" />
	<connection from="37540946_26762983_26762974_1560792024" to="37540946_26762983_26762974_900995750" />
	<connection from="37540946_26762983_26762974_900995750" to="37540946_26762983_26762974_1560792066" />
	<connection from="37540946_26762983_26762974_1560792066" to="37540946_26762983_26762974_4382361819" />
	<connection from="37540946_26762983_26762974_4382361819" to="37540946_26762983_26762974_1560792092" />
	<connection from="37540946_26762983_26762974_1560792092" to="545634012_26762974_439657962_26762974" />
	<connection from="37540946_26762983_26762974_1560792092" to="25185429_26762974_26762962_26762974" />
	<connection from="403736227_26784937_26784942_26784937" to="403736227_26784937_26784942_26784941" />
	<connection from="403736227_26784937_26784942_26784941" to="403736227_26784937_26784942_1228298485" />
	<connection from="403736227_26784937_26784942_1228298485" to="403736227_26784942_26784945_26784942" />
	<connection from="403736227_26784937_26784942_1228298485" to="4495205_26784942_26784943_26784942" />
	<connection from="403736227_26784937_26784942_1228298485" to="403736227_26784942_26784937_26784942" />
	<connection from="403736227_26784937_26784942_1228298485" to="4495205_26784942_26784920_26784942" />
	<connection from="335462911_3425667210_5194290241_3425667210" to="335462911_3425667210_5194290241_654356118" />
	<connection from="335462911_3425667210_5194290241_654356118" to="335462911_3425667210_5194290241_3684182887" />
	<connection from="335462911_3425667210_5194290241_3684182887" to="335462911_3425667210_5194290241_3368326856" />
	<connection from="335462911_3425667210_5194290241_3368326856" to="165034514_5194290241_60644033_5194290241" />
	<connection from="335462911_3425667210_5194290241_3368326856" to="355562350_5194290241_27537748_5194290241" />
	<connection from="335462911_3425667210_5194290241_3368326856" to="23352698_5194290241_27537749_5194290241" />
	<connection from="145933306_26736183_2021286624_26736183" to="145933306_2021286624_26736183_2021286624" />
	<connection from="145933306_26736183_2021286624_26736183" to="191543844_2021286624_2021286625_2021286624" />
	<connection from="98996700_26736189_1145332282_26736189" to="98996700_26736189_1145332282_2716909760" />
	<connection from="98996700_26736189_1145332282_2716909760" to="98996700_1145332282_26736189_1145332282" />
	<connection from="98996700_26736189_1145332282_2716909760" to="98996702_1145332282_1145332275_1145332282" />
	<connection from="490356846_900995749_26762967_900995749" to="490356846_900995749_26762967_4382361795" />
	<connection from="490356846_900995749_26762967_4382361795" to="490356846_900995749_26762967_4382361797" />
	<connection from="490356846_900995749_26762967_4382361797" to="523857755_26762967_1560791805_26762967" />
	<connection from="490356846_900995749_26762967_4382361797" to="37540947_26762967_26762983_26762967" />
	<connection from="4410427_26682519_26736168_26682519" to="4410427_26682519_26736168_610219731" />
	<connection from="4410427_26682519_26736168_610219731" to="4410427_26682519_26736168_2129678477" />
	<connection from="4410427_26682519_26736168_2129678477" to="4410427_26682519_26736168_2129678476" />
	<connection from="4410427_26682519_26736168_2129678476" to="4410427_26682519_26736168_2129678474" />
	<connection from="4410427_26682519_26736168_2129678474" to="4410427_26682519_26736168_610219732" />
	<connection from="4410427_26682519_26736168_610219732" to="4410427_26682519_26736168_2129678471" />
	<connection from="4410427_26682519_26736168_2129678471" to="4410427_26682519_26736168_26682516" />
	<connection from="4410427_26682519_26736168_26682516" to="31621011_26736168_17777144_26736168" />
	<connection from="4515626_26736143_7115947089_26736143" to="4515626_7115947089_26736143_7115947089" />
	<connection from="4515626_26736143_7115947089_26736143" to="4515626_7115947089_26736176_7115947089" />
	<connection from="4515626_26736143_7115947089_26736143" to="761621801_7115947089_7115947095_7115947089" />
	<connection from="133743711_1321325636_1757441427_1321325636" to="133743711_1321325636_1757441427_26938228" />
	<connection from="133743711_1321325636_1757441427_26938228" to="133743711_1321325636_1757441427_1910194499" />
	<connection from="133743711_1321325636_1757441427_1910194499" to="133743711_1321325636_1757441427_1023499966" />
	<connection from="133743711_1321325636_1757441427_1023499966" to="133743711_1321325636_1757441427_26938198" />
	<connection from="133743711_1321325636_1757441427_26938198" to="133743711_1321325636_1757441427_1757437102" />
	<connection from="133743711_1321325636_1757441427_1757437102" to="133743711_1321325636_1757441427_1023499910" />
	<connection from="133743711_1321325636_1757441427_1023499910" to="133743711_1321325636_1757441427_1757437103" />
	<connection from="133743711_1321325636_1757441427_1757437103" to="133743711_1321325636_1757441427_1757437104" />
	<connection from="133743711_1321325636_1757441427_1757437104" to="133743711_1321325636_1757441427_1023499941" />
	<connection from="133743711_1321325636_1757441427_1023499941" to="133743711_1321325636_1757441427_1979746296" />
	<connection from="133743711_1321325636_1757441427_1979746296" to="133743711_1321325636_1757441427_1757437105" />
	<connection from="133743711_1321325636_1757441427_1757437105" to="133743711_1321325636_1757441427_4397807257" />
	<connection from="133743711_1321325636_1757441427_4397807257" to="259176004_1757441427_26727582_1757441427" />
	<connection from="231887171_1980757232_26704485_1980757232" to="231887171_1980757232_26704485_7896584852" />
	<connection from="231887171_1980757232_26704485_7896584852" to="231887171_1980757232_26704485_2739330882" />
	<connection from="231887171_1980757232_26704485_2739330882" to="231887171_1980757232_26704485_6427824849" />
	<connection from="231887171_1980757232_26704485_6427824849" to="231887171_1980757232_26704485_572519532" />
	<connection from="231887171_1980757232_26704485_572519532" to="231887171_26704485_1749584808_26704485" />
	<connection from="231887171_1980757232_26704485_572519532" to="4381168_26704485_1749584806_26704485" />
	<connection from="231887171_1980757232_26704485_572519532" to="231887171_26704485_1980757232_26704485" />
	<connection from="4491645_26704482_26704483_26704482" to="4491645_26704482_26704483_4782446440" />
	<connection from="4491645_26704482_26704483_4782446440" to="4491645_26704482_26704483_1932523033" />
	<connection from="4491645_26704482_26704483_1932523033" to="4491645_26704482_26704483_6766195049" />
	<connection from="4491645_26704482_26704483_6766195049" to="4491645_26704482_26704483_5462098210" />
	<connection from="4491645_26704482_26704483_5462098210" to="27093182_26704483_341364246_26704483" />
	<connection from="4491645_26704482_26704483_5462098210" to="4381166_26704483_1980757232_26704483" />
	<connection from="4491645_26704482_26704483_5462098210" to="163209200_26704483_663807016_26704483" />
	<connection from="4491645_26704482_26704483_5462098210" to="4491645_26704483_26704482_26704483" />
	<connection from="823947565_26704054_26704546_26704054" to="823947565_26704054_26704546_4520362257" />
	<connection from="823947565_26704054_26704546_4520362257" to="823947565_26704054_26704546_5845551787" />
	<connection from="823947565_26704054_26704546_5845551787" to="823947565_26704054_26704546_4404288511" />
	<connection from="823947565_26704054_26704546_4404288511" to="168903522_26704546_26869181_26704546" />
	<connection from="823947565_26704054_26704546_4404288511" to="823947564_26704546_7692857986_26704546" />
	<connection from="823947565_26704054_26704546_4404288511" to="168903522_26704546_1840963728_26704546" />
	<connection from="305422037_26704503_3100460451_26704503" to="305422037_26704503_3100460451_3180637037" />
	<connection from="305422037_26704503_3100460451_3180637037" to="305422037_26704503_3100460451_3180637176" />
	<connection from="305422037_26704503_3100460451_3180637176" to="305422037_26704503_3100460451_3180637240" />
	<connection from="305422037_26704503_3100460451_3180637240" to="305422037_26704503_3100460451_3180637425" />
	<connection from="305422037_26704503_3100460451_3180637425" to="305422037_26704503_3100460451_3180637605" />
	<connection from="305422037_26704503_3100460451_3180637605" to="32909624_3100460451_370624772_3100460451" />
	<connection from="305422037_26704503_3100460451_3180637605" to="305422037_3100460451_26704503_3100460451" />
	<connection from="4490163_26736157_263703831_26736157" to="4490163_26736157_263703831_6146127558" />
	<connection from="4490163_26736157_263703831_6146127558" to="4490163_26736157_263703831_6146127554" />
	<connection from="4490163_26736157_263703831_6146127554" to="4490163_26736157_263703831_2727233551" />
	<connection from="4490163_26736157_263703831_2727233551" to="4490163_26736157_263703831_5479064922" />
	<connection from="4490163_26736157_263703831_5479064922" to="4490163_263703831_26736157_263703831" />
	<connection from="166436748_268050708_26704447_268050708" to="166436748_268050708_26704447_1229879571" />
	<connection from="166436748_268050708_26704447_1229879571" to="166436748_268050708_26704447_3791061868" />
	<connection from="166436748_268050708_26704447_3791061868" to="166436748_268050708_26704447_1837751366" />
	<connection from="166436748_268050708_26704447_1837751366" to="166436748_268050708_26704447_2791258279" />
	<connection from="166436748_268050708_26704447_2791258279" to="335462905_26704447_1992100022_26704447" />
	<connection from="166436748_268050708_26704447_2791258279" to="4381557_26704447_26704448_26704447" />
	<connection from="166436748_268050708_26704447_2791258279" to="166436748_26704447_268050708_26704447" />
	<connection from="163209069_1749584806_3886445946_1749584806" to="163209069_1749584806_3886445946_2705435586" />
	<connection from="163209069_1749584806_3886445946_2705435586" to="163209069_1749584806_3886445946_3087285889" />
	<connection from="163209069_1749584806_3886445946_3087285889" to="109612314_3886445946_1840963728_3886445946" />
	<connection from="163209069_1749584806_3886445946_3087285889" to="163209069_3886445946_26704053_3886445946" />
	<connection from="163209069_1749584806_3886445946_3087285889" to="163209069_3886445946_1749584806_3886445946" />
	<connection from="163209068_1749584807_26704049_1749584807" to="163209068_1749584807_26704049_5020407100" />
	<connection from="163209068_1749584807_26704049_5020407100" to="163196852_26704049_292298702_26704049" />
	<connection from="163209068_1749584807_26704049_5020407100" to="163208792_26704049_364309950_26704049" />
	<connection from="163209068_1749584807_26704049_5020407100" to="4377781_26704049_26704052_26704049" />
	<connection from="163209068_1749584807_26704049_5020407100" to="163209068_26704049_1749584807_26704049" />
	<connection from="724621035_26736196_26736176_26736196" to="724621035_26736196_26736176_3645267308" />
	<connection from="724621035_26736196_26736176_3645267308" to="724621035_26736196_26736176_3951565130" />
	<connection from="724621035_26736196_26736176_3951565130" to="724621035_26736196_26736176_6146138102" />
	<connection from="724621035_26736196_26736176_6146138102" to="724621035_26736196_26736176_6146138105" />
	<connection from="724621035_26736196_26736176_6146138105" to="4490377_26736176_26736154_26736176" />
	<connection from="724621035_26736196_26736176_6146138105" to="4515626_26736176_7115947089_26736176" />
	<connection from="724621035_26736196_26736176_6146138105" to="724621035_26736176_26736175_26736176" />
	<connection from="327805905_3346178031_26736159_3346178031" to="327805905_3346178031_26736159_4404288520" />
	<connection from="327805905_3346178031_26736159_4404288520" to="327805905_3346178031_26736159_5845539015" />
	<connection from="327805905_3346178031_26736159_5845539015" to="327805903_26736159_26736157_26736159" />
	<connection from="327805905_3346178031_26736159_5845539015" to="327805904_26736159_26736127_26736159" />
	<connection from="37540947_26762967_26762983_26762967" to="823947571_26762983_26763067_26762983" />
	<connection from="37540947_26762967_26762983_26762967" to="37540946_26762983_26762974_26762983" />
	<connection from="165034514_60644033_5194290241_60644033" to="165034514_60644033_5194290241_573214099" />
	<connection from="165034514_60644033_5194290241_573214099" to="165034514_60644033_5194290241_1417401017" />
	<connection from="165034514_60644033_5194290241_1417401017" to="165034514_60644033_5194290241_3791061877" />
	<connection from="165034514_60644033_5194290241_3791061877" to="165034514_60644033_5194290241_2747243518" />
	<connection from="165034514_60644033_5194290241_2747243518" to="165034514_5194290241_60644033_5194290241" />
	<connection from="165034514_60644033_5194290241_2747243518" to="355562350_5194290241_27537748_5194290241" />
	<connection from="165034514_60644033_5194290241_2747243518" to="23352698_5194290241_27537749_5194290241" />
	<connection from="4381554_26704450_26704452_26704450" to="4381554_26704450_26704452_251105934" />
	<connection from="4381554_26704450_26704452_251105934" to="4381554_26704450_26704452_3367726926" />
	<connection from="4381554_26704450_26704452_3367726926" to="4381554_26704450_26704452_251105930" />
	<connection from="4381554_26704450_26704452_251105930" to="4381554_26704450_26704452_26704451" />
	<connection from="4381554_26704450_26704452_26704451" to="4381554_26704450_26704452_3755855085" />
	<connection from="4381554_26704450_26704452_3755855085" to="4381554_26704450_26704452_2756682032" />
	<connection from="4381554_26704450_26704452_2756682032" to="4381554_26704450_26704452_5618327156" />
	<connection from="4381554_26704450_26704452_5618327156" to="4381554_26704450_26704452_341364242" />
	<connection from="4381554_26704450_26704452_341364242" to="4381554_26704450_26704452_1837631937" />
	<connection from="4381554_26704450_26704452_1837631937" to="4381554_26704450_26704452_3369118051" />
	<connection from="4381554_26704450_26704452_3369118051" to="4381554_26704450_26704452_368020746" />
	<connection from="4381554_26704450_26704452_368020746" to="4381554_26704452_26704450_26704452" />
	<connection from="4381554_26704450_26704452_368020746" to="37764670_26704452_20246274_26704452" />
	<connection from="627460043_3275571361_5313824950_3275571361" to="627460043_3275571361_5313824950_415838100" />
	<connection from="627460043_3275571361_5313824950_415838100" to="627460043_3275571361_5313824950_3791061796" />
	<connection from="627460043_3275571361_5313824950_3791061796" to="627460043_3275571361_5313824950_654381359" />
	<connection from="627460043_3275571361_5313824950_654381359" to="320896581_5313824950_21487145_5313824950" />
	<connection from="4471286_6604935388_26736188_6604935388" to="4471286_6604935388_26736188_7498134551" />
	<connection from="4471286_6604935388_26736188_7498134551" to="4471286_6604935388_26736188_2716909762" />
	<connection from="4471286_6604935388_26736188_2716909762" to="4471286_6604935388_26736188_2129678384" />
	<connection from="4471286_6604935388_26736188_2129678384" to="4515848_26736188_17777145_26736188" />
	<connection from="4471286_6604935388_26736188_2129678384" to="32909782_26736188_26736200_26736188" />
	<connection from="4471286_6604935388_26736188_2129678384" to="4471286_26736188_6604935388_26736188" />
	<connection from="30127237_27409724_27409693_27409724" to="30127237_27409724_27409693_1978290053" />
	<connection from="30127237_27409724_27409693_1978290053" to="30127237_27409724_27409693_3237304100" />
	<connection from="30127237_27409724_27409693_3237304100" to="30127237_27409724_27409693_3791061895" />
	<connection from="30127237_27409724_27409693_3791061895" to="30127237_27409724_27409693_2468772501" />
	<connection from="30127237_27409724_27409693_2468772501" to="30127237_27409693_27409724_27409693" />
	<connection from="30127237_27409724_27409693_2468772501" to="100541440_27409693_26908924_27409693" />
	<connection from="30127237_27409724_27409693_2468772501" to="100541440_27409693_364309968_27409693" />
	<connection from="32909782_26736188_26736200_26736188" to="32909782_26736188_26736200_4598380610" />
	<connection from="32909782_26736188_26736200_4598380610" to="32909782_26736188_26736200_4782446448" />
	<connection from="32909782_26736188_26736200_4782446448" to="32909782_26736188_26736200_4200454924" />
	<connection from="32909782_26736188_26736200_4200454924" to="32909782_26736188_26736200_3900580935" />
	<connection from="32909782_26736188_26736200_3900580935" to="32909782_26736188_26736200_3951565152" />
	<connection from="32909782_26736188_26736200_3951565152" to="4490166_26736200_26736199_26736200" />
	<connection from="32909782_26736188_26736200_3951565152" to="32909782_26736200_5784621456_26736200" />
	<connection from="823947543_26762998_5845560523_26762998" to="823947543_26762998_5845560523_4714152607" />
	<connection from="823947543_26762998_5845560523_4714152607" to="823947543_26762998_5845560523_1339061965" />
	<connection from="823947543_26762998_5845560523_1339061965" to="618449092_5845560523_5845560522_5845560523" />
	<connection from="823947543_26762998_5845560523_1339061965" to="823947543_5845560523_5845560519_5845560523" />
	<connection from="192158399_1992100022_408194196_1992100022" to="36337926_408194196_1363248023_408194196" />
	<connection from="4490166_26736200_26736199_26736200" to="4490166_26736200_26736199_8134156257" />
	<connection from="4490166_26736200_26736199_8134156257" to="4490166_26736200_26736199_2130734537" />
	<connection from="4490166_26736200_26736199_2130734537" to="4490166_26736199_26736200_26736199" />
	<connection from="152698992_26708460_263702166_26708460" to="152698992_26708460_263702166_5784633193" />
	<connection from="152698992_26708460_263702166_5784633193" to="24320477_263702166_263702167_263702166" />
	<connection from="152698992_26708460_263702166_5784633193" to="152698992_263702166_26736187_263702166" />
	<connection from="168889126_26784918_26784920_26784918" to="168889126_26784918_26784920_6146156305" />
	<connection from="168889126_26784918_26784920_6146156305" to="168889126_26784918_26784920_3976479148" />
	<connection from="168889126_26784918_26784920_3976479148" to="4495205_26784920_26784942_26784920" />
	<connection from="168889126_26784918_26784920_3976479148" to="168889126_26784920_26727635_26784920" />
	<connection from="168889126_26784918_26784920_3976479148" to="4515854_26784920_26784921_26784920" />
	<connection from="823947563_7692857985_26704545_7692857985" to="823947563_26704545_3066762534_26704545" />
	<connection from="823947563_7692857985_26704545_7692857985" to="4531800_26704545_26869179_26704545" />
	<connection from="823947563_7692857985_26704545_7692857985" to="4531799_26704545_26704523_26704545" />
	<connection from="823947569_5845560522_3951898354_5845560522" to="823947569_5845560522_3951898354_1339061969" />
	<connection from="823947569_5845560522_3951898354_1339061969" to="823947569_5845560522_3951898354_5845560526" />
	<connection from="823947569_5845560522_3951898354_5845560526" to="823947569_3951898354_5845560524_3951898354" />
	<connection from="823947569_5845560522_3951898354_5845560526" to="35582944_3951898354_26762998_3951898354" />
	<connection from="823947569_5845560522_3951898354_5845560526" to="4409396_3951898354_26704043_3951898354" />
	<connection from="25418281_3935677404_261568494_3935677404" to="25418281_261568494_3935677404_261568494" />
	<connection from="25418281_3935677404_261568494_3935677404" to="157856063_261568494_26704579_261568494" />
	<connection from="112427848_26704519_26704548_26704519" to="112427848_26704519_26704548_1277963435" />
	<connection from="112427848_26704519_26704548_1277963435" to="112427848_26704548_26704503_26704548" />
	<connection from="112427848_26704519_26704548_1277963435" to="32909625_26704548_26704513_26704548" />
	<connection from="112427848_26704519_26704548_1277963435" to="112427848_26704548_26704519_26704548" />
	<connection from="112427848_26704519_26704548_1277963435" to="32909625_26704548_7737382874_26704548" />
	<connection from="168889126_26784920_26727635_26784920" to="168889126_26784920_26727635_6146150795" />
	<connection from="168889126_26784920_26727635_6146150795" to="168889126_26784920_26727635_6146150797" />
	<connection from="168889126_26784920_26727635_6146150797" to="168889126_26784920_26727635_1137693327" />
	<connection from="168889126_26784920_26727635_1137693327" to="168889126_26784920_26727635_1137693339" />
	<connection from="168889126_26784920_26727635_1137693339" to="168889126_26784920_26727635_5758742723" />
	<connection from="168889126_26784920_26727635_5758742723" to="168889126_26784920_26727635_6146143362" />
	<connection from="168889126_26784920_26727635_6146143362" to="168889126_26784920_26727635_6146143366" />
	<connection from="168889126_26784920_26727635_6146143366" to="168889126_26784920_26727635_26784954" />
	<connection from="168889126_26784920_26727635_26784954" to="168889126_26784920_26727635_6146143370" />
	<connection from="168889126_26784920_26727635_6146143370" to="168889126_26784920_26727635_1137678948" />
	<connection from="168889126_26784920_26727635_1137678948" to="168889126_26784920_26727635_1137678955" />
	<connection from="168889126_26784920_26727635_1137678955" to="168889126_26784920_26727635_102918603" />
	<connection from="168889126_26784920_26727635_102918603" to="168889126_26784920_26727635_26662385" />
	<connection from="168889126_26784920_26727635_26662385" to="168889126_26784920_26727635_102918605" />
	<connection from="371175286_312778949_17777145_312778949" to="371175286_312778949_17777145_3900580941" />
	<connection from="371175286_312778949_17777145_3900580941" to="371175286_312778949_17777145_3951565153" />
	<connection from="371175286_312778949_17777145_3951565153" to="371175286_312778949_17777145_4782446449" />
	<connection from="371175286_312778949_17777145_4782446449" to="371175286_312778949_17777145_4598380609" />
	<connection from="371175286_312778949_17777145_4598380609" to="87687993_17777145_27409541_17777145" />
	<connection from="371175286_312778949_17777145_4598380609" to="4515848_17777145_26736188_17777145" />
	<connection from="371175286_312778949_17777145_4598380609" to="32909783_17777145_102918588_17777145" />
	<connection from="302422396_3066797048_26736201_3066797048" to="302422396_3066797048_26736201_5845538957" />
	<connection from="302422396_3066797048_26736201_5845538957" to="302422396_3066797048_26736201_5845538959" />
	<connection from="302422396_3066797048_26736201_5845538959" to="28658323_26736201_6965000739_26736201" />
	<connection from="302422396_3066797048_26736201_5845538959" to="27093179_26736201_26736192_26736201" />
	<connection from="302422396_3066797048_26736201_5845538959" to="4515705_26736201_26736173_26736201" />
	<connection from="25418281_261568494_3935677404_261568494" to="393568274_3935677404_3935677405_3935677404" />
	<connection from="25418281_261568494_3935677404_261568494" to="25418281_3935677404_261568494_3935677404" />
	<connection from="163209069_26704053_3886445946_26704053" to="163209069_26704053_3886445946_5140314050" />
	<connection from="163209069_26704053_3886445946_5140314050" to="163209069_26704053_3886445946_3713441047" />
	<connection from="163209069_26704053_3886445946_3713441047" to="163209069_26704053_3886445946_3713441052" />
	<connection from="163209069_26704053_3886445946_3713441052" to="163209069_26704053_3886445946_1131251450" />
	<connection from="163209069_26704053_3886445946_1131251450" to="109612314_3886445946_1840963728_3886445946" />
	<connection from="163209069_26704053_3886445946_1131251450" to="163209069_3886445946_26704053_3886445946" />
	<connection from="163209069_26704053_3886445946_1131251450" to="163209069_3886445946_1749584806_3886445946" />