<connections>
	<connection from="902218521_8380258138_17088373" to="30065532_17088373_17088374" />
	<connection from="18653021_1359819253_192486480" to="279491450_192486480_2837178477" />
	<connection from="553317594_1367859994_8380258200" to="902218559_8380258200_5341236681" />
	<connection from="279491438_2837178481_411133654" to="279491437_411133654_1359819245" />
	<connection from="35111185_411905006_2837178469" to="279491442_2837178469_8377920153" />
	<connection from="20151534_17088368_213125824" to="4100121_213125824_17088370" />
	<connection from="279491441_2837178471_510085" to="901928579_510085_8377920150" />
	<connection from="122430600_8380253343_1368171013" to="122430601_1368171013_8380258195" />
	<connection from="279491445_8377920151_2837178468" to="279491453_2837178468_411905007" />
	<connection from="133849553_1007657747_25581553" to="4263103_25581553_3248957134" />
	<connection from="24508046_194585117_194585120" to="4443294_194585120_1368171018" />
	<connection from="4263106_1368171015_25581553" to="4263103_25581553_3248957134" />
	<connection from="902218880_510081_8380253352" to="902218879_8380253352_8380253353" />
	<connection from="279491447_411133601_192486498" to="902218522_192486498_8380258138" />
	<connection from="18833298_1367859990_8380253355" to="902218882_8380253355_8380253354" />
	<connection from="122395399_194584922_2837178483" to="279491432_2837178483_1367859990" />
	<connection from="4100121_213125824_17088370" to="902218560_17088370_213126996" />
	<connection from="902218879_8380253352_8380253353" to="902218558_8380253353_8380258199" />
	<connection from="279491435_1368171018_1368171019" to="122430599_1368171019_1368171010" />
	<connection from="769047474_7178942636_17088374" to="4068272_17088374_2837178471" />
	<connection from="902218875_8380253349_194574597" to="279491440_194574597_2837178484" />
	<connection from="769047475_509105_7178942637" to="4068262_7178942637_8380253344" />
	<connection from="553317595_5341236681_1368171018" to="279491435_1368171018_1368171019" />
	<connection from="279491444_2837178479_1359819253" to="18833299_1359819253_194585117" />
	<connection from="279491444_2837178479_1359819253" to="18653021_1359819253_192486480" />
	<connection from="902224331_8380311089_1368060765" to="284327671_1368060765_2837178485" />
	<connection from="901937041_1359819288_8377943870" to="901937040_8377943870_8377943869" />
	<connection from="902218870_8380253347_8380253346" to="902218869_8380253346_7178942636" />
	<connection from="901928578_8377920150_8377920151" to="279491445_8377920151_2837178468" />
	<connection from="570637769_5486104221_8380311090" to="902224332_8380311090_8380311089" />
	<connection from="902218554_8380258195_8380258194" to="902218553_8380258194_1368171015" />
	<connection from="279491434_2837178474_411133719" to="279491436_411133719_17084347" />
	<connection from="4263103_25581553_3248957134" to="318488909_3248957134_25581554" />
	<connection from="121480268_1359819288_1359819290" to="901937043_1359819290_1359819170" />
	<connection from="18833302_1368171015_8380253348" to="902218876_8380253348_8380253349" />
	<connection from="279491446_2837178485_7178942634" to="769047472_7178942634_194584922" />
	<connection from="902224329_8380311091_8380311092" to="279491454_8380311092_5486102317" />
	<connection from="86638472_1007657725_3248957127" to="318488937_3248957127_1007657751" />
	<connection from="279491443_2837178470_509105" to="3700590_509105_1359819197" />
	<connection from="279491443_2837178470_509105" to="769047475_509105_7178942637" />
	<connection from="279491440_194574597_2837178484" to="279491457_2837178484_194574604" />
	<connection from="318488919_411133739_1359819186" to="318488914_1359819186_411133638" />
	<connection from="279491429_1359819245_2837178480" to="279491439_2837178480_8377943872" />
	<connection from="279491437_411133654_1359819245" to="279491429_1359819245_2837178480" />
	<connection from="279491427_1359819197_1359819228" to="902218874_1359819228_8380253342" />
	<connection from="279491427_1359819197_1359819228" to="30064898_1359819228_8380253341" />
	<connection from="122430603_1368171010_1368171014" to="4443293_1368171014_1359819220" />
	<connection from="122430603_1368171010_1368171014" to="18833301_1368171014_1368171013" />
	<connection from="902224332_8380311090_8380311089" to="902224331_8380311089_1368060765" />
	<connection from="4100106_8380258198_8380253347" to="902218870_8380253347_8380253346" />
	<connection from="122430599_1368171019_1368171010" to="122430603_1368171010_1368171014" />
	<connection from="902218522_192486498_8380258138" to="902218521_8380258138_17088373" />
	<connection from="30064898_1359819228_8380253341" to="902218868_8380253341_370481030" />
	<connection from="122417842_7178942633_510081" to="902218880_510081_8380253352" />
	<connection from="235157878_370481031_2837178474" to="279491434_2837178474_411133719" />
	<connection from="4263105_25581560_1359819220" to="279491430_1359819220_2837178475" />
	<connection from="4068276_17084347_1007657719" to="86638468_1007657719_1007657722" />
	<connection from="901937042_1359819170_2837178479" to="279491444_2837178479_1359819253" />
	<connection from="902218869_8380253346_7178942636" to="769047474_7178942636_17088374" />
	<connection from="901937040_8377943870_8377943869" to="30065531_8377943869_25581558" />
	<connection from="279491442_2837178469_8377920153" to="901928577_8377920153_8377920152" />
	<connection from="902218878_8380253350_8380253351" to="902218877_8380253351_7178942635" />
	<connection from="279491456_213126996_411133601" to="279491447_411133601_192486498" />
	<connection from="901928579_510085_8377920150" to="901928578_8377920150_8377920151" />
	<connection from="769047471_194584922_7178942633" to="122417842_7178942633_510081" />
	<connection from="902218881_8380253354_1367859991" to="562948192_1367859991_1367859994" />
	<connection from="4068272_17088374_2837178471" to="279491441_2837178471_510085" />
	<connection from="18833301_1368171014_1368171013" to="122430601_1368171013_8380258195" />
	<connection from="902223497_8380302820_8380302819" to="902223496_8380302819_2837178482" />
	<connection from="901937043_1359819290_1359819170" to="901937042_1359819170_2837178479" />
	<connection from="279491450_192486480_2837178477" to="279491448_2837178477_192486498" />
	<connection from="769047473_7178942635_194574604" to="30065228_194574604_2837178486" />
	<connection from="30065227_17088367_17088368" to="20151534_17088368_213125824" />
	<connection from="35051883_411133641_25581559" to="35051884_25581559_25581560" />
	<connection from="902218871_8380253345_8380258197" to="902218556_8380258197_8380258196" />
	<connection from="4068262_7178942637_8380253344" to="902218872_8380253344_8380253345" />
	<connection from="122430601_1368171013_8380258195" to="902218554_8380258195_8380258194" />
	<connection from="902223495_3616184417_8380302817" to="902223494_8380302817_8380302818" />
	<connection from="901937039_8377943872_8377943871" to="901937038_8377943871_3616184417" />
	<connection from="902218877_8380253351_7178942635" to="769047473_7178942635_194574604" />
	<connection from="3700590_509105_1359819197" to="279491427_1359819197_1359819228" />
	<connection from="902218868_8380253341_370481030" to="902218867_370481030_370481031" />
	<connection from="18833299_1359819253_194585117" to="24508046_194585117_194585120" />
	<connection from="35051881_25581554_411133739" to="318488919_411133739_1359819186" />
	<connection from="279491436_411133719_17084347" to="4068276_17084347_1007657719" />
	<connection from="4443293_1368171014_1359819220" to="279491430_1359819220_2837178475" />
	<connection from="35051884_25581559_25581560" to="4263105_25581560_1359819220" />
	<connection from="902223494_8380302817_8380302818" to="356116659_8380302818_1916729978" />
	<connection from="279491455_2837178478_17088367" to="30065227_17088367_17088368" />
	<connection from="279491455_2837178478_17088367" to="18832709_17088367_194574597" />
	<connection from="279491457_2837178484_194574604" to="30065228_194574604_2837178486" />
	<connection from="902218560_17088370_213126996" to="279491456_213126996_411133601" />
	<connection from="902218867_370481030_370481031" to="235157878_370481031_2837178474" />
	<connection from="902218873_8380253342_8380253343" to="122430600_8380253343_1368171013" />
	<connection from="902218558_8380253353_8380258199" to="902218557_8380258199_8380258198" />
	<connection from="902223496_8380302819_2837178482" to="279491431_2837178482_411133732" />
	<connection from="901937038_8377943871_3616184417" to="902223495_3616184417_8380302817" />
	<connection from="86638468_1007657719_1007657722" to="86638469_1007657722_1007657712" />
	<connection from="318488909_3248957134_25581554" to="35051881_25581554_411133739" />
	<connection from="30065531_8377943869_25581558" to="4263104_25581558_411133641" />
	<connection from="318488914_1359819186_411133638" to="35051882_411133638_25581555" />
	<connection from="902218559_8380258200_5341236681" to="553317595_5341236681_1368171018" />
	<connection from="769047472_7178942634_194584922" to="769047471_194584922_7178942633" />
	<connection from="769047472_7178942634_194584922" to="122395399_194584922_2837178483" />
	<connection from="4443294_194585120_1368171018" to="279491435_1368171018_1368171019" />
	<connection from="902218874_1359819228_8380253342" to="902218873_8380253342_8380253343" />
	<connection from="902218556_8380258197_8380258196" to="902218555_8380258196_8380253350" />
	<connection from="4403090_25581555_1359819245" to="279491429_1359819245_2837178480" />
	<connection from="284327671_1368060765_2837178485" to="279491446_2837178485_7178942634" />
	<connection from="35051882_411133638_25581555" to="4403090_25581555_1359819245" />
	<connection from="279491448_2837178477_192486498" to="902218522_192486498_8380258138" />
	<connection from="279491431_2837178482_411133732" to="279491433_411133732_1359819288" />
	<connection from="902224330_2837178486_8380311091" to="902224329_8380311091_8380311092" />
	<connection from="901928576_8377920152_2837178470" to="279491443_2837178470_509105" />
	<connection from="562948192_1367859991_1367859994" to="553317594_1367859994_8380258200" />
	<connection from="902218557_8380258199_8380258198" to="4100106_8380258198_8380253347" />
	<connection from="902218555_8380258196_8380253350" to="902218878_8380253350_8380253351" />
	<connection from="30065532_17088373_17088374" to="4068272_17088374_2837178471" />
	<connection from="279491430_1359819220_2837178475" to="279491428_2837178475_17084347" />
	<connection from="4263100_1007657751_2837178478" to="279491455_2837178478_17088367" />
	<connection from="318488937_3248957127_1007657751" to="4263100_1007657751_2837178478" />
	<connection from="318488937_3248957127_1007657751" to="4263102_1007657751_1007657747" />
	<connection from="279491432_2837178483_1367859990" to="18833295_1367859990_2837178481" />
	<connection from="279491432_2837178483_1367859990" to="18833298_1367859990_8380253355" />
	<connection from="902218876_8380253348_8380253349" to="902218875_8380253349_194574597" />
	<connection from="902218553_8380258194_1368171015" to="4263106_1368171015_25581553" />
	<connection from="902218553_8380258194_1368171015" to="18833302_1368171015_8380253348" />
	<connection from="902218882_8380253355_8380253354" to="902218881_8380253354_1367859991" />
	<connection from="902218872_8380253344_8380253345" to="902218871_8380253345_8380258197" />
	<connection from="279491433_411133732_1359819288" to="121480268_1359819288_1359819290" />
	<connection from="279491433_411133732_1359819288" to="901937041_1359819288_8377943870" />
	<connection from="901928577_8377920153_8377920152" to="901928576_8377920152_2837178470" />
	<connection from="18833295_1367859990_2837178481" to="279491438_2837178481_411133654" />
	<connection from="279491428_2837178475_17084347" to="4068276_17084347_1007657719" />
	<connection from="4263104_25581558_411133641" to="35051883_411133641_25581559" />
	<connection from="30065228_194574604_2837178486" to="902224330_2837178486_8380311091" />
	<connection from="4263102_1007657751_1007657747" to="133849553_1007657747_25581553" />
	<connection from="279491439_2837178480_8377943872" to="901937039_8377943872_8377943871" />
	<connection from="318496449_3249029061_8380302820" to="902223497_8380302820_8380302819" />
	<connection from="18832709_17088367_194574597" to="279491440_194574597_2837178484" />
</connections>
