<nodes>
	<node id="1007657712" x="308693.24" y="5700203.74" z="0.00" type="priority" />
	<node id="1007657719" x="306120.38" y="5700880.03" z="0.00" type="priority" />
	<node id="1007657722" x="306182.76" y="5700861.49" z="0.00" type="priority" />
	<node id="1007657725" x="309124.99" y="5700110.11" z="0.00" type="priority" />
	<node id="1007657747" x="305739.84" y="5701014.42" z="0.00" type="priority" />
	<node id="1007657751" x="305773.61" y="5701003.66" z="0.00" type="priority" />
	<node id="1359819170" x="304585.73" y="5701329.75" z="0.00" type="priority" />
	<node id="1359819186" x="305172.44" y="5701190.95" z="0.00" type="priority" />
	<node id="1359819197" x="305089.64" y="5700707.60" z="0.00" type="priority" />
	<node id="1359819220" x="305545.37" y="5701061.43" z="0.00" type="priority" />
	<node id="1359819228" x="305124.04" y="5700795.14" z="0.00" type="priority" />
	<node id="1359819245" x="304853.97" y="5701286.44" z="0.00" type="priority" />
	<node id="1359819253" x="304799.92" y="5701271.77" z="0.00" type="priority" />
	<node id="1359819288" x="304459.83" y="5701381.49" z="0.00" type="priority" />
	<node id="1359819290" x="304576.26" y="5701332.36" z="0.00" type="priority" />
	<node id="1367859990" x="305370.87" y="5701527.40" z="0.00" type="priority" />
	<node id="1367859991" x="305255.25" y="5701243.77" z="0.00" type="priority" />
	<node id="1367859994" x="305245.63" y="5701220.76" z="0.00" type="priority" />
	<node id="1368060765" x="305618.96" y="5702103.11" z="0.00" type="priority" />
	<node id="1368171010" x="305272.90" y="5701130.03" z="0.00" type="priority" />
	<node id="1368171013" x="305219.25" y="5701031.41" z="0.00" type="priority" />
	<node id="1368171014" x="305365.70" y="5701102.67" z="0.00" type="priority" />
	<node id="1368171015" x="305316.64" y="5701272.58" z="0.00" type="priority" />
	<node id="1368171018" x="305118.03" y="5701176.77" z="0.00" type="priority" />
	<node id="1368171019" x="305206.92" y="5701150.10" z="0.00" type="priority" />
	<node id="17084347" x="305901.81" y="5700946.03" z="0.00" type="priority" />
	<node id="17088367" x="305507.59" y="5701244.40" z="0.00" type="priority" />
	<node id="17088368" x="305360.86" y="5701353.87" z="0.00" type="priority" />
	<node id="17088370" x="305045.39" y="5701238.59" z="0.00" type="priority" />
	<node id="17088373" x="305047.72" y="5700917.37" z="0.00" type="priority" />
	<node id="17088374" x="305046.84" y="5700689.29" z="0.00" type="priority" />
	<node id="1916729978" x="301657.99" y="5702540.32" z="0.00" type="priority" />
	<node id="192486480" x="304900.99" y="5701207.84" z="0.00" type="priority" />
	<node id="192486498" x="305020.25" y="5700988.52" z="0.00" type="priority" />
	<node id="194574597" x="305435.63" y="5701566.28" z="0.00" type="priority" />
	<node id="194574604" x="305526.40" y="5701828.41" z="0.00" type="priority" />
	<node id="194584922" x="305475.96" y="5701749.85" z="0.00" type="priority" />
	<node id="194585117" x="305008.84" y="5701209.02" z="0.00" type="priority" />
	<node id="194585120" x="305043.32" y="5701198.66" z="0.00" type="priority" />
	<node id="213125824" x="305293.71" y="5701365.76" z="0.00" type="priority" />
	<node id="213126996" x="305024.71" y="5701199.82" z="0.00" type="priority" />
	<node id="25581553" x="305327.96" y="5701144.20" z="0.00" type="priority" />
	<node id="25581554" x="305218.02" y="5701178.10" z="0.00" type="priority" />
	<node id="25581555" x="305022.59" y="5701235.69" z="0.00" type="priority" />
	<node id="25581558" x="305014.97" y="5701221.21" z="0.00" type="priority" />
	<node id="25581559" x="305211.95" y="5701162.78" z="0.00" type="priority" />
	<node id="25581560" x="305277.92" y="5701142.93" z="0.00" type="priority" />
	<node id="2837178468" x="304675.53" y="5699770.03" z="0.00" type="priority" />
	<node id="2837178469" x="304807.93" y="5700052.06" z="0.00" type="priority" />
	<node id="2837178470" x="304840.66" y="5700133.14" z="0.00" type="priority" />
	<node id="2837178471" x="304856.07" y="5700216.90" z="0.00" type="priority" />
	<node id="2837178474" x="305675.48" y="5701001.90" z="0.00" type="priority" />
	<node id="2837178475" x="305731.04" y="5701000.96" z="0.00" type="priority" />
	<node id="2837178477" x="304973.31" y="5701094.50" z="0.00" type="priority" />
	<node id="2837178478" x="305606.00" y="5701112.87" z="0.00" type="priority" />
	<node id="2837178479" x="304692.82" y="5701301.40" z="0.00" type="priority" />
	<node id="2837178480" x="304632.84" y="5701348.64" z="0.00" type="priority" />
	<node id="2837178481" x="305095.32" y="5701333.34" z="0.00" type="priority" />
	<node id="2837178482" x="304046.90" y="5701503.47" z="0.00" type="priority" />
	<node id="2837178483" x="305428.03" y="5701668.74" z="0.00" type="priority" />
	<node id="2837178484" x="305471.36" y="5701654.90" z="0.00" type="priority" />
	<node id="2837178485" x="305549.72" y="5701932.84" z="0.00" type="priority" />
	<node id="2837178486" x="305587.64" y="5701982.31" z="0.00" type="priority" />
	<node id="3248957127" x="306203.82" y="5700871.72" z="0.00" type="priority" />
	<node id="3248957134" x="305283.79" y="5701157.98" z="0.00" type="priority" />
	<node id="3249029061" x="301852.39" y="5702373.33" z="0.00" type="priority" />
	<node id="3616184417" x="304308.92" y="5701438.39" z="0.00" type="priority" />
	<node id="370481030" x="305205.08" y="5700898.87" z="0.00" type="priority" />
	<node id="370481031" x="305229.34" y="5700912.75" z="0.00" type="priority" />
	<node id="411133601" x="305001.32" y="5701092.44" z="0.00" type="priority" />
	<node id="411133638" x="305056.66" y="5701225.30" z="0.00" type="priority" />
	<node id="411133641" x="305049.28" y="5701211.01" z="0.00" type="priority" />
	<node id="411133654" x="304965.84" y="5701281.79" z="0.00" type="priority" />
	<node id="411133719" x="305795.09" y="5700962.83" z="0.00" type="priority" />
	<node id="411133732" x="304116.10" y="5701482.70" z="0.00" type="priority" />
	<node id="411133739" x="305185.41" y="5701187.21" z="0.00" type="priority" />
	<node id="411905006" x="304324.25" y="5698856.68" z="0.00" type="priority" />
	<node id="411905007" x="304311.62" y="5698870.05" z="0.00" type="priority" />
	<node id="509105" x="304989.75" y="5700500.45" z="0.00" type="priority" />
	<node id="510081" x="305365.21" y="5701477.10" z="0.00" type="priority" />
	<node id="510085" x="304824.39" y="5700138.59" z="0.00" type="priority" />
	<node id="5341236681" x="305213.14" y="5701140.74" z="0.00" type="priority" />
	<node id="5486102317" x="306094.03" y="5703236.77" z="0.00" type="priority" />
	<node id="5486104221" x="306079.57" y="5703244.30" z="0.00" type="priority" />
	<node id="7178942633" x="305451.06" y="5701688.24" z="0.00" type="priority" />
	<node id="7178942634" x="305485.15" y="5701772.63" z="0.00" type="priority" />
	<node id="7178942635" x="305494.47" y="5701751.57" z="0.00" type="priority" />
	<node id="7178942636" x="305070.27" y="5700750.07" z="0.00" type="priority" />
	<node id="7178942637" x="305016.23" y="5700565.48" z="0.00" type="priority" />
	<node id="8377920150" x="304802.64" y="5700084.75" z="0.00" type="priority" />
	<node id="8377920151" x="304800.16" y="5700078.60" z="0.00" type="priority" />
	<node id="8377920152" x="304819.45" y="5700080.60" z="0.00" type="priority" />
	<node id="8377920153" x="304816.97" y="5700074.45" z="0.00" type="priority" />
	<node id="8377943869" x="304595.40" y="5701343.64" z="0.00" type="priority" />
	<node id="8377943870" x="304587.08" y="5701345.96" z="0.00" type="priority" />
	<node id="8377943871" x="304595.91" y="5701358.87" z="0.00" type="priority" />
	<node id="8377943872" x="304604.15" y="5701356.59" z="0.00" type="priority" />
	<node id="8380253341" x="305194.38" y="5700889.51" z="0.00" type="priority" />
	<node id="8380253342" x="305164.25" y="5700895.06" z="0.00" type="priority" />
	<node id="8380253343" x="305168.84" y="5700906.48" z="0.00" type="priority" />
	<node id="8380253344" x="305150.38" y="5700897.64" z="0.00" type="priority" />
	<node id="8380253345" x="305154.97" y="5700908.90" z="0.00" type="priority" />
	<node id="8380253346" x="305131.75" y="5700901.25" z="0.00" type="priority" />
	<node id="8380253347" x="305136.31" y="5700912.46" z="0.00" type="priority" />
	<node id="8380253348" x="305348.86" y="5701351.83" z="0.00" type="priority" />
	<node id="8380253349" x="305353.52" y="5701363.35" z="0.00" type="priority" />
	<node id="8380253350" x="305335.29" y="5701354.81" z="0.00" type="priority" />
	<node id="8380253351" x="305340.25" y="5701366.91" z="0.00" type="priority" />
	<node id="8380253352" x="305321.26" y="5701370.62" z="0.00" type="priority" />
	<node id="8380253353" x="305316.48" y="5701358.34" z="0.00" type="priority" />
	<node id="8380253354" x="305301.83" y="5701360.06" z="0.00" type="priority" />
	<node id="8380253355" x="305306.88" y="5701372.30" z="0.00" type="priority" />
	<node id="8380258138" x="305043.35" y="5700930.35" z="0.00" type="priority" />
	<node id="8380258194" x="305277.34" y="5701171.19" z="0.00" type="priority" />
	<node id="8380258195" x="305259.35" y="5701126.71" z="0.00" type="priority" />
	<node id="8380258196" x="305262.32" y="5701175.96" z="0.00" type="priority" />
	<node id="8380258197" x="305244.38" y="5701131.19" z="0.00" type="priority" />
	<node id="8380258198" x="305227.34" y="5701136.22" z="0.00" type="priority" />
	<node id="8380258199" x="305245.44" y="5701180.98" z="0.00" type="priority" />
	<node id="8380258200" x="305230.89" y="5701185.16" z="0.00" type="priority" />
	<node id="8380302817" x="303315.08" y="5701735.52" z="0.00" type="priority" />
	<node id="8380302818" x="303310.15" y="5701736.96" z="0.00" type="priority" />
	<node id="8380302819" x="303314.31" y="5701723.27" z="0.00" type="priority" />
	<node id="8380302820" x="303309.41" y="5701724.58" z="0.00" type="priority" />
	<node id="8380311089" x="305635.23" y="5702143.08" z="0.00" type="priority" />
	<node id="8380311090" x="305639.01" y="5702152.35" z="0.00" type="priority" />
	<node id="8380311091" x="305649.92" y="5702136.98" z="0.00" type="priority" />
	<node id="8380311092" x="305653.73" y="5702146.43" z="0.00" type="priority" />
</nodes>
