<edges>
	<edge id="902218521_8380258138_17088373" from="8380258138" to="17088373" numLanes="2" shape="305043.35,5700930.35,0.00 305047.72,5700917.37,0.00" speed="19.44" />
	<edge id="18653021_1359819253_192486480" from="1359819253" to="192486480" numLanes="2" shape="304799.92,5701271.77,0.00 304821.46,5701258.56,0.00 304837.30,5701250.92,0.00 304853.16,5701242.84,0.00 304866.58,5701235.08,0.00 304900.99,5701207.84,0.00" speed="19.44" />
	<edge id="553317594_1367859994_8380258200" from="1367859994" to="8380258200" numLanes="1" shape="305245.63,5701220.76,0.00 305230.89,5701185.16,0.00" speed="16.67" />
	<edge id="279491438_2837178481_411133654" from="2837178481" to="411133654" numLanes="2" shape="305095.32,5701333.34,0.00 305028.91,5701300.72,0.00 304994.27,5701288.65,0.00 304981.35,5701285.31,0.00 304965.84,5701281.79,0.00" speed="19.44" />
	<edge id="35111185_411905006_2837178469" from="411905006" to="2837178469" numLanes="3" shape="304324.25,5698856.68,0.00 304387.27,5699011.55,0.00 304392.10,5699023.39,0.00 304454.95,5699177.58,0.00 304572.26,5699468.19,0.00 304761.05,5699935.92,0.00 304807.93,5700052.06,0.00" speed="36.11" />
	<edge id="20151534_17088368_213125824" from="17088368" to="213125824" numLanes="2" shape="305360.86,5701353.87,0.00 305344.51,5701358.35,0.00 305327.81,5701361.87,0.00 305310.96,5701364.33,0.00 305293.71,5701365.76,0.00" speed="19.44" />
	<edge id="279491441_2837178471_510085" from="2837178471" to="510085" numLanes="5" shape="304856.07,5700216.90,0.00 304824.39,5700138.59,0.00" speed="36.11" />
	<edge id="122430600_8380253343_1368171013" from="8380253343" to="1368171013" numLanes="1" shape="305168.84,5700906.48,0.00 305211.95,5701013.62,0.00 305219.25,5701031.41,0.00" speed="27.78" />
	<edge id="279491445_8377920151_2837178468" from="8377920151" to="2837178468" numLanes="4" shape="304800.16,5700078.60,0.00 304745.04,5699942.13,0.00 304675.53,5699770.03,0.00" speed="36.11" />
	<edge id="133849553_1007657747_25581553" from="1007657747" to="25581553" numLanes="3" shape="305739.84,5701014.42,0.00 305691.73,5701030.32,0.00 305509.57,5701089.24,0.00 305327.96,5701144.20,0.00" speed="36.11" />
	<edge id="24508046_194585117_194585120" from="194585117" to="194585120" numLanes="1" shape="305008.84,5701209.02,0.00 305043.32,5701198.66,0.00" speed="19.44" />
	<edge id="4263106_1368171015_25581553" from="1368171015" to="25581553" numLanes="1" shape="305316.64,5701272.58,0.00 305334.34,5701296.50,0.00 305345.42,5701306.24,0.00 305355.21,5701311.68,0.00 305369.23,5701315.33,0.00 305384.11,5701314.83,0.00 305396.67,5701310.79,0.00 305409.10,5701302.87,0.00 305425.92,5701281.74,0.00 305456.40,5701219.32,0.00 305463.60,5701196.36,0.00 305464.75,5701179.26,0.00 305460.55,5701162.41,0.00 305453.55,5701151.32,0.00 305442.36,5701141.03,0.00 305429.99,5701133.48,0.00 305411.79,5701130.66,0.00 305386.10,5701134.75,0.00 305361.14,5701142.55,0.00 305327.96,5701144.20,0.00" speed="11.11" />
	<edge id="902218880_510081_8380253352" from="510081" to="8380253352" numLanes="3" shape="305365.21,5701477.10,0.00 305321.26,5701370.62,0.00" speed="36.11" />
	<edge id="279491447_411133601_192486498" from="411133601" to="192486498" numLanes="1" shape="305001.32,5701092.44,0.00 305001.99,5701078.25,0.00 305002.86,5701066.96,0.00 305005.95,5701045.11,0.00 305008.70,5701031.05,0.00 305015.76,5701006.84,0.00 305020.25,5700988.52,0.00" speed="19.44" />
	<edge id="18833298_1367859990_8380253355" from="1367859990" to="8380253355" numLanes="1" shape="305370.87,5701527.40,0.00 305306.88,5701372.30,0.00" speed="22.22" />
	<edge id="279491453_2837178468_411905007" from="2837178468" to="411905007" numLanes="3" shape="304675.53,5699770.03,0.00 304555.94,5699473.97,0.00 304438.21,5699182.50,0.00 304376.14,5699028.80,0.00 304371.24,5699016.69,0.00 304311.62,5698870.05,0.00" speed="36.11" />
	<edge id="122395399_194584922_2837178483" from="194584922" to="2837178483" numLanes="1" shape="305475.96,5701749.85,0.00 305460.13,5701734.73,0.00 305428.03,5701668.74,0.00" speed="19.44" />
	<edge id="4100121_213125824_17088370" from="213125824" to="17088370" numLanes="2" shape="305293.71,5701365.76,0.00 305279.36,5701366.65,0.00 305273.50,5701366.42,0.00 305257.16,5701365.48,0.00 305244.16,5701364.10,0.00 305228.72,5701361.82,0.00 305213.58,5701358.52,0.00 305194.93,5701353.46,0.00 305184.03,5701349.71,0.00 305170.64,5701344.47,0.00 305158.52,5701338.94,0.00 305146.03,5701332.59,0.00 305133.94,5701325.60,0.00 305122.91,5701318.41,0.00 305106.56,5701306.69,0.00 305095.45,5701297.53,0.00 305085.34,5701288.05,0.00 305074.74,5701277.43,0.00 305063.83,5701264.59,0.00 305054.22,5701251.97,0.00 305045.39,5701238.59,0.00" speed="19.44" />
	<edge id="902218879_8380253352_8380253353" from="8380253352" to="8380253353" numLanes="3" shape="305321.26,5701370.62,0.00 305316.48,5701358.34,0.00" speed="36.11" />
	<edge id="279491435_1368171018_1368171019" from="1368171018" to="1368171019" numLanes="2" shape="305118.03,5701176.77,0.00 305206.92,5701150.10,0.00" speed="19.44" />
	<edge id="769047474_7178942636_17088374" from="7178942636" to="17088374" numLanes="3" shape="305070.27,5700750.07,0.00 305046.84,5700689.29,0.00" speed="36.11" />
	<edge id="902218875_8380253349_194574597" from="8380253349" to="194574597" numLanes="1" shape="305353.52,5701363.35,0.00 305435.63,5701566.28,0.00" speed="27.78" />
	<edge id="769047475_509105_7178942637" from="509105" to="7178942637" numLanes="3" shape="304989.75,5700500.45,0.00 305016.23,5700565.48,0.00" speed="36.11" />
	<edge id="553317595_5341236681_1368171018" from="5341236681" to="1368171018" numLanes="1" shape="305213.14,5701140.74,0.00 305176.05,5701048.42,0.00 305166.35,5701030.50,0.00 305155.07,5701017.30,0.00 305145.38,5701010.62,0.00 305132.04,5701005.42,0.00 305119.17,5701003.62,0.00 305106.13,5701005.90,0.00 305091.43,5701012.12,0.00 305080.55,5701021.23,0.00 305070.20,5701035.21,0.00 305041.64,5701093.58,0.00 305034.77,5701115.00,0.00 305034.21,5701131.40,0.00 305035.54,5701139.14,0.00 305038.81,5701148.32,0.00 305045.87,5701158.56,0.00 305055.22,5701167.77,0.00 305062.35,5701172.18,0.00 305068.87,5701175.00,0.00 305075.88,5701176.98,0.00 305083.64,5701178.05,0.00 305091.99,5701178.12,0.00 305118.03,5701176.77,0.00" speed="11.11" />
	<edge id="279491444_2837178479_1359819253" from="2837178479" to="1359819253" numLanes="3" shape="304692.82,5701301.40,0.00 304799.92,5701271.77,0.00" speed="19.44" />
	<edge id="902224331_8380311089_1368060765" from="8380311089" to="1368060765" numLanes="3" shape="305635.23,5702143.08,0.00 305618.96,5702103.11,0.00" speed="36.11" />
	<edge id="901937041_1359819288_8377943870" from="1359819288" to="8377943870" numLanes="3" shape="304459.83,5701381.49,0.00 304587.08,5701345.96,0.00" speed="36.11" />
	<edge id="902218870_8380253347_8380253346" from="8380253347" to="8380253346" numLanes="3" shape="305136.31,5700912.46,0.00 305131.75,5700901.25,0.00" speed="36.11" />
	<edge id="901928578_8377920150_8377920151" from="8377920150" to="8377920151" numLanes="4" shape="304802.64,5700084.75,0.00 304800.16,5700078.60,0.00" speed="36.11" />
	<edge id="570637769_5486104221_8380311090" from="5486104221" to="8380311090" numLanes="3" shape="306079.57,5703244.30,0.00 306058.18,5703191.24,0.00 305914.08,5702833.69,0.00 305872.27,5702729.80,0.00 305714.71,5702338.29,0.00 305684.17,5702263.29,0.00 305639.01,5702152.35,0.00" speed="36.11" />
	<edge id="902218554_8380258195_8380258194" from="8380258195" to="8380258194" numLanes="2" shape="305259.35,5701126.71,0.00 305277.34,5701171.19,0.00" speed="27.78" />
	<edge id="279491434_2837178474_411133719" from="2837178474" to="411133719" numLanes="2" shape="305675.48,5701001.90,0.00 305761.12,5700972.94,0.00 305795.09,5700962.83,0.00" speed="16.67" />
	<edge id="4263103_25581553_3248957134" from="25581553" to="3248957134" numLanes="4" shape="305327.96,5701144.20,0.00 305283.79,5701157.98,0.00" speed="36.11" />
	<edge id="121480268_1359819288_1359819290" from="1359819288" to="1359819290" numLanes="2" shape="304459.83,5701381.49,0.00 304468.49,5701369.79,0.00 304501.09,5701357.69,0.00 304520.52,5701351.12,0.00 304576.26,5701332.36,0.00" speed="19.44" />
	<edge id="18833302_1368171015_8380253348" from="1368171015" to="8380253348" numLanes="1" shape="305316.64,5701272.58,0.00 305326.50,5701296.56,0.00 305348.86,5701351.83,0.00" speed="27.78" />
	<edge id="279491446_2837178485_7178942634" from="2837178485" to="7178942634" numLanes="4" shape="305549.72,5701932.84,0.00 305496.26,5701800.20,0.00 305485.15,5701772.63,0.00" speed="36.11" />
	<edge id="902224329_8380311091_8380311092" from="8380311091" to="8380311092" numLanes="3" shape="305649.92,5702136.98,0.00 305653.73,5702146.43,0.00" speed="36.11" />
	<edge id="86638472_1007657725_3248957127" from="1007657725" to="3248957127" numLanes="3" shape="309124.99,5700110.11,0.00 308652.92,5700230.01,0.00 308290.58,5700322.11,0.00 308175.17,5700351.33,0.00 307694.90,5700473.17,0.00 307202.13,5700598.50,0.00 307080.51,5700629.43,0.00 306709.66,5700724.38,0.00 306474.09,5700790.23,0.00 306249.21,5700857.72,0.00 306203.82,5700871.72,0.00" speed="36.11" />
	<edge id="279491443_2837178470_509105" from="2837178470" to="509105" numLanes="5" shape="304840.66,5700133.14,0.00 304846.50,5700147.63,0.00 304949.56,5700402.96,0.00 304989.75,5700500.45,0.00" speed="36.11" />
	<edge id="279491440_194574597_2837178484" from="194574597" to="2837178484" numLanes="2" shape="305435.63,5701566.28,0.00 305471.36,5701654.90,0.00" speed="27.78" />
	<edge id="318488919_411133739_1359819186" from="411133739" to="1359819186" numLanes="4" shape="305185.41,5701187.21,0.00 305172.44,5701190.95,0.00" speed="36.11" />
	<edge id="279491429_1359819245_2837178480" from="1359819245" to="2837178480" numLanes="4" shape="304853.97,5701286.44,0.00 304789.69,5701305.07,0.00 304632.84,5701348.64,0.00" speed="36.11" />
	<edge id="279491437_411133654_1359819245" from="411133654" to="1359819245" numLanes="1" shape="304965.84,5701281.79,0.00 304954.31,5701280.66,0.00 304942.70,5701280.00,0.00 304928.88,5701279.82,0.00 304915.32,5701280.66,0.00 304904.20,5701281.97,0.00 304891.81,5701284.31,0.00 304853.97,5701286.44,0.00" speed="19.44" />
	<edge id="279491427_1359819197_1359819228" from="1359819197" to="1359819228" numLanes="3" shape="305089.64,5700707.60,0.00 305124.04,5700795.14,0.00" speed="27.78" />
	<edge id="122430603_1368171010_1368171014" from="1368171010" to="1368171014" numLanes="2" shape="305272.90,5701130.03,0.00 305365.70,5701102.67,0.00" speed="19.44" />
	<edge id="902224332_8380311090_8380311089" from="8380311090" to="8380311089" numLanes="3" shape="305639.01,5702152.35,0.00 305635.23,5702143.08,0.00" speed="36.11" />
	<edge id="4100106_8380258198_8380253347" from="8380258198" to="8380253347" numLanes="3" shape="305227.34,5701136.22,0.00 305213.88,5701102.96,0.00 305155.17,5700958.84,0.00 305136.31,5700912.46,0.00" speed="36.11" />
	<edge id="122430599_1368171019_1368171010" from="1368171019" to="1368171010" numLanes="2" shape="305206.92,5701150.10,0.00 305272.90,5701130.03,0.00" speed="19.44" />
	<edge id="902218522_192486498_8380258138" from="192486498" to="8380258138" numLanes="2" shape="305020.25,5700988.52,0.00 305043.35,5700930.35,0.00" speed="19.44" />
	<edge id="30064898_1359819228_8380253341" from="1359819228" to="8380253341" numLanes="2" shape="305124.04,5700795.14,0.00 305143.69,5700827.47,0.00 305152.89,5700842.26,0.00 305168.46,5700864.17,0.00 305186.47,5700882.58,0.00 305194.38,5700889.51,0.00" speed="22.22" />
	<edge id="122417842_7178942633_510081" from="7178942633" to="510081" numLanes="3" shape="305451.06,5701688.24,0.00 305434.64,5701648.53,0.00 305365.21,5701477.10,0.00" speed="36.11" />
	<edge id="235157878_370481031_2837178474" from="370481031" to="2837178474" numLanes="2" shape="305229.34,5700912.75,0.00 305431.24,5701010.33,0.00 305465.99,5701025.24,0.00 305492.21,5701033.51,0.00 305521.77,5701037.85,0.00 305544.63,5701037.68,0.00 305580.78,5701031.74,0.00 305614.87,5701022.18,0.00 305675.48,5701001.90,0.00" speed="16.67" />
	<edge id="4263105_25581560_1359819220" from="25581560" to="1359819220" numLanes="3" shape="305277.92,5701142.93,0.00 305477.56,5701082.65,0.00 305480.44,5701081.75,0.00 305508.17,5701073.07,0.00 305545.37,5701061.43,0.00" speed="36.11" />
	<edge id="4068276_17084347_1007657719" from="17084347" to="1007657719" numLanes="4" shape="305901.81,5700946.03,0.00 306120.38,5700880.03,0.00" speed="36.11" />
	<edge id="901937042_1359819170_2837178479" from="1359819170" to="2837178479" numLanes="2" shape="304585.73,5701329.75,0.00 304654.45,5701311.74,0.00 304692.82,5701301.40,0.00" speed="19.44" />
	<edge id="902218869_8380253346_7178942636" from="8380253346" to="7178942636" numLanes="3" shape="305131.75,5700901.25,0.00 305119.56,5700871.28,0.00 305070.27,5700750.07,0.00" speed="36.11" />
	<edge id="901937040_8377943870_8377943869" from="8377943870" to="8377943869" numLanes="3" shape="304587.08,5701345.96,0.00 304595.40,5701343.64,0.00" speed="36.11" />
	<edge id="279491442_2837178469_8377920153" from="2837178469" to="8377920153" numLanes="4" shape="304807.93,5700052.06,0.00 304816.97,5700074.45,0.00" speed="36.11" />
	<edge id="902218878_8380253350_8380253351" from="8380253350" to="8380253351" numLanes="3" shape="305335.29,5701354.81,0.00 305340.25,5701366.91,0.00" speed="36.11" />
	<edge id="279491456_213126996_411133601" from="213126996" to="411133601" numLanes="2" shape="305024.71,5701199.82,0.00 305016.71,5701179.66,0.00 305012.03,5701164.62,0.00 305007.52,5701145.70,0.00 305003.04,5701116.73,0.00 305001.72,5701106.70,0.00 305001.32,5701092.44,0.00" speed="19.44" />
	<edge id="901928579_510085_8377920150" from="510085" to="8377920150" numLanes="4" shape="304824.39,5700138.59,0.00 304802.64,5700084.75,0.00" speed="36.11" />
	<edge id="769047471_194584922_7178942633" from="194584922" to="7178942633" numLanes="3" shape="305475.96,5701749.85,0.00 305451.06,5701688.24,0.00" speed="36.11" />
	<edge id="902218881_8380253354_1367859991" from="8380253354" to="1367859991" numLanes="1" shape="305301.83,5701360.06,0.00 305255.25,5701243.77,0.00" speed="22.22" />
	<edge id="4068272_17088374_2837178471" from="17088374" to="2837178471" numLanes="5" shape="305046.84,5700689.29,0.00 304956.80,5700465.89,0.00 304934.34,5700410.36,0.00 304856.07,5700216.90,0.00" speed="36.11" />
	<edge id="18833301_1368171014_1368171013" from="1368171014" to="1368171013" numLanes="1" shape="305365.70,5701102.67,0.00 305385.13,5701087.65,0.00 305391.42,5701081.63,0.00 305402.21,5701066.19,0.00 305404.75,5701051.36,0.00 305403.46,5701031.55,0.00 305396.07,5701015.84,0.00 305386.10,5701004.90,0.00 305365.45,5700991.50,0.00 305300.11,5700960.36,0.00 305281.91,5700954.78,0.00 305265.19,5700953.70,0.00 305248.40,5700959.65,0.00 305233.30,5700969.99,0.00 305225.88,5700979.98,0.00 305221.81,5700989.01,0.00 305219.67,5700997.77,0.00 305219.08,5701007.36,0.00 305219.25,5701031.41,0.00" speed="19.44" />
	<edge id="902223497_8380302820_8380302819" from="8380302820" to="8380302819" numLanes="3" shape="303309.41,5701724.58,0.00 303314.31,5701723.27,0.00" speed="36.11" />
	<edge id="901937043_1359819290_1359819170" from="1359819290" to="1359819170" numLanes="2" shape="304576.26,5701332.36,0.00 304585.73,5701329.75,0.00" speed="19.44" />
	<edge id="279491450_192486480_2837178477" from="192486480" to="2837178477" numLanes="2" shape="304900.99,5701207.84,0.00 304930.59,5701175.13,0.00 304953.89,5701136.96,0.00 304965.79,5701112.80,0.00 304973.31,5701094.50,0.00" speed="19.44" />
	<edge id="769047473_7178942635_194574604" from="7178942635" to="194574604" numLanes="3" shape="305494.47,5701751.57,0.00 305511.46,5701793.38,0.00 305526.40,5701828.41,0.00" speed="36.11" />
	<edge id="30065227_17088367_17088368" from="17088367" to="17088368" numLanes="2" shape="305507.59,5701244.40,0.00 305482.73,5701275.76,0.00 305457.66,5701300.11,0.00 305429.00,5701321.66,0.00 305398.20,5701339.09,0.00 305360.86,5701353.87,0.00" speed="19.44" />
	<edge id="35051883_411133641_25581559" from="411133641" to="25581559" numLanes="3" shape="305049.28,5701211.01,0.00 305211.95,5701162.78,0.00" speed="36.11" />
	<edge id="902218871_8380253345_8380258197" from="8380253345" to="8380258197" numLanes="3" shape="305154.97,5700908.90,0.00 305171.54,5700949.59,0.00 305230.71,5701097.08,0.00 305244.38,5701131.19,0.00" speed="36.11" />
	<edge id="4068262_7178942637_8380253344" from="7178942637" to="8380253344" numLanes="3" shape="305016.23,5700565.48,0.00 305058.77,5700672.64,0.00 305137.61,5700866.26,0.00 305150.38,5700897.64,0.00" speed="36.11" />
	<edge id="122430601_1368171013_8380258195" from="1368171013" to="8380258195" numLanes="2" shape="305219.25,5701031.41,0.00 305259.35,5701126.71,0.00" speed="27.78" />
	<edge id="902223495_3616184417_8380302817" from="3616184417" to="8380302817" numLanes="3" shape="304308.92,5701438.39,0.00 304206.54,5701468.48,0.00 304120.92,5701494.38,0.00 304052.24,5701514.70,0.00 303916.12,5701555.24,0.00 303766.02,5701600.19,0.00 303490.88,5701682.65,0.00 303315.08,5701735.52,0.00" speed="36.11" />
	<edge id="901937039_8377943872_8377943871" from="8377943872" to="8377943871" numLanes="3" shape="304604.15,5701356.59,0.00 304595.91,5701358.87,0.00" speed="36.11" />
	<edge id="902218877_8380253351_7178942635" from="8380253351" to="7178942635" numLanes="3" shape="305340.25,5701366.91,0.00 305381.01,5701472.26,0.00 305494.47,5701751.57,0.00" speed="36.11" />
	<edge id="279491454_8380311092_5486102317" from="8380311092" to="5486102317" numLanes="3" shape="305653.73,5702146.43,0.00 305698.39,5702257.34,0.00 305728.93,5702333.16,0.00 305887.11,5702725.19,0.00 305927.72,5702825.82,0.00 306072.49,5703184.11,0.00 306078.14,5703197.91,0.00 306094.03,5703236.77,0.00" speed="36.11" />
	<edge id="86638469_1007657722_1007657712" from="1007657722" to="1007657712" numLanes="3" shape="306182.76,5700861.49,0.00 306305.69,5700824.19,0.00 306477.01,5700773.36,0.00 306649.17,5700724.02,0.00 307089.79,5700611.59,0.00 307104.21,5700607.92,0.00 307220.47,5700578.25,0.00 307859.59,5700415.27,0.00 308665.63,5700210.74,0.00 308693.24,5700203.74,0.00" speed="36.11" />
	<edge id="3700590_509105_1359819197" from="509105" to="1359819197" numLanes="2" shape="304989.75,5700500.45,0.00 305018.96,5700540.96,0.00 305027.60,5700558.23,0.00 305034.80,5700574.08,0.00 305050.20,5700609.29,0.00 305089.64,5700707.60,0.00" speed="27.78" />
	<edge id="902218868_8380253341_370481030" from="8380253341" to="370481030" numLanes="2" shape="305194.38,5700889.51,0.00 305205.08,5700898.87,0.00" speed="22.22" />
	<edge id="18833299_1359819253_194585117" from="1359819253" to="194585117" numLanes="1" shape="304799.92,5701271.77,0.00 304838.97,5701260.36,0.00 305008.84,5701209.02,0.00" speed="19.44" />
	<edge id="35051881_25581554_411133739" from="25581554" to="411133739" numLanes="4" shape="305218.02,5701178.10,0.00 305185.41,5701187.21,0.00" speed="36.11" />
	<edge id="279491436_411133719_17084347" from="411133719" to="17084347" numLanes="1" shape="305795.09,5700962.83,0.00 305830.86,5700954.86,0.00 305864.27,5700949.70,0.00 305883.56,5700944.55,0.00 305901.81,5700946.03,0.00" speed="16.67" />
	<edge id="4443293_1368171014_1359819220" from="1368171014" to="1359819220" numLanes="1" shape="305365.70,5701102.67,0.00 305376.25,5701099.42,0.00 305435.61,5701080.81,0.00 305466.81,5701073.51,0.00 305502.64,5701067.37,0.00 305523.81,5701061.41,0.00 305545.37,5701061.43,0.00" speed="19.44" />
	<edge id="35051884_25581559_25581560" from="25581559" to="25581560" numLanes="3" shape="305211.95,5701162.78,0.00 305277.92,5701142.93,0.00" speed="36.11" />
	<edge id="902223494_8380302817_8380302818" from="8380302817" to="8380302818" numLanes="3" shape="303315.08,5701735.52,0.00 303310.15,5701736.96,0.00" speed="36.11" />
	<edge id="279491455_2837178478_17088367" from="2837178478" to="17088367" numLanes="3" shape="305606.00,5701112.87,0.00 305587.94,5701131.06,0.00 305561.12,5701164.89,0.00 305507.59,5701244.40,0.00" speed="19.44" />
	<edge id="279491457_2837178484_194574604" from="2837178484" to="194574604" numLanes="1" shape="305471.36,5701654.90,0.00 305498.18,5701721.68,0.00 305517.09,5701785.71,0.00 305526.40,5701828.41,0.00" speed="27.78" />
	<edge id="902218560_17088370_213126996" from="17088370" to="213126996" numLanes="2" shape="305045.39,5701238.59,0.00 305024.71,5701199.82,0.00" speed="19.44" />
	<edge id="902218867_370481030_370481031" from="370481030" to="370481031" numLanes="2" shape="305205.08,5700898.87,0.00 305229.34,5700912.75,0.00" speed="22.22" />
	<edge id="902218873_8380253342_8380253343" from="8380253342" to="8380253343" numLanes="1" shape="305164.25,5700895.06,0.00 305168.84,5700906.48,0.00" speed="27.78" />
	<edge id="902218558_8380253353_8380258199" from="8380253353" to="8380258199" numLanes="3" shape="305316.48,5701358.34,0.00 305307.60,5701336.51,0.00 305245.44,5701180.98,0.00" speed="36.11" />
	<edge id="356116659_8380302818_1916729978" from="8380302818" to="1916729978" numLanes="3" shape="303310.15,5701736.96,0.00 302919.98,5701853.54,0.00 302880.05,5701865.77,0.00 302834.25,5701879.82,0.00 302664.32,5701936.58,0.00 302604.41,5701959.38,0.00 302553.79,5701979.33,0.00 302450.11,5702024.13,0.00 302352.95,5702070.82,0.00 302315.17,5702090.49,0.00 302257.69,5702120.41,0.00 302164.89,5702173.56,0.00 302073.76,5702230.03,0.00 301989.53,5702287.50,0.00 301912.39,5702342.99,0.00 301859.16,5702383.14,0.00 301741.48,5702474.93,0.00 301657.99,5702540.32,0.00" speed="36.11" />
	<edge id="902223496_8380302819_2837178482" from="8380302819" to="2837178482" numLanes="3" shape="303314.31,5701723.27,0.00 303485.27,5701672.12,0.00 303759.98,5701589.78,0.00 303910.13,5701544.40,0.00 304046.90,5701503.47,0.00" speed="36.11" />
	<edge id="901937038_8377943871_3616184417" from="8377943871" to="3616184417" numLanes="3" shape="304595.91,5701358.87,0.00 304308.92,5701438.39,0.00" speed="36.11" />
	<edge id="86638468_1007657719_1007657722" from="1007657719" to="1007657722" numLanes="3" shape="306120.38,5700880.03,0.00 306182.76,5700861.49,0.00" speed="36.11" />
	<edge id="318488909_3248957134_25581554" from="3248957134" to="25581554" numLanes="4" shape="305283.79,5701157.98,0.00 305270.40,5701162.09,0.00 305218.02,5701178.10,0.00" speed="36.11" />
	<edge id="30065531_8377943869_25581558" from="8377943869" to="25581558" numLanes="3" shape="304595.40,5701343.64,0.00 304632.72,5701333.22,0.00 304806.35,5701283.88,0.00 305014.97,5701221.21,0.00" speed="36.11" />
	<edge id="318488914_1359819186_411133638" from="1359819186" to="411133638" numLanes="3" shape="305172.44,5701190.95,0.00 305056.66,5701225.30,0.00" speed="36.11" />
	<edge id="902218559_8380258200_5341236681" from="8380258200" to="5341236681" numLanes="1" shape="305230.89,5701185.16,0.00 305213.14,5701140.74,0.00" speed="16.67" />
	<edge id="769047472_7178942634_194584922" from="7178942634" to="194584922" numLanes="4" shape="305485.15,5701772.63,0.00 305475.96,5701749.85,0.00" speed="36.11" />
	<edge id="4443294_194585120_1368171018" from="194585120" to="1368171018" numLanes="1" shape="305043.32,5701198.66,0.00 305118.03,5701176.77,0.00" speed="19.44" />
	<edge id="902218874_1359819228_8380253342" from="1359819228" to="8380253342" numLanes="1" shape="305124.04,5700795.14,0.00 305164.25,5700895.06,0.00" speed="27.78" />
	<edge id="902218556_8380258197_8380258196" from="8380258197" to="8380258196" numLanes="3" shape="305244.38,5701131.19,0.00 305262.32,5701175.96,0.00" speed="36.11" />
	<edge id="4403090_25581555_1359819245" from="25581555" to="1359819245" numLanes="3" shape="305022.59,5701235.69,0.00 304853.97,5701286.44,0.00" speed="36.11" />
	<edge id="284327671_1368060765_2837178485" from="1368060765" to="2837178485" numLanes="3" shape="305618.96,5702103.11,0.00 305549.72,5701932.84,0.00" speed="36.11" />
	<edge id="35051882_411133638_25581555" from="411133638" to="25581555" numLanes="3" shape="305056.66,5701225.30,0.00 305022.59,5701235.69,0.00" speed="36.11" />
	<edge id="279491448_2837178477_192486498" from="2837178477" to="192486498" numLanes="1" shape="304973.31,5701094.50,0.00 304980.22,5701077.66,0.00 305010.73,5701004.20,0.00 305020.25,5700988.52,0.00" speed="19.44" />
	<edge id="279491431_2837178482_411133732" from="2837178482" to="411133732" numLanes="4" shape="304046.90,5701503.47,0.00 304116.10,5701482.70,0.00" speed="36.11" />
	<edge id="902224330_2837178486_8380311091" from="2837178486" to="8380311091" numLanes="3" shape="305587.64,5701982.31,0.00 305649.92,5702136.98,0.00" speed="36.11" />
	<edge id="901928576_8377920152_2837178470" from="8377920152" to="2837178470" numLanes="4" shape="304819.45,5700080.60,0.00 304840.66,5700133.14,0.00" speed="36.11" />
	<edge id="562948192_1367859991_1367859994" from="1367859991" to="1367859994" numLanes="1" shape="305255.25,5701243.77,0.00 305245.63,5701220.76,0.00" speed="16.67" />
	<edge id="902218557_8380258199_8380258198" from="8380258199" to="8380258198" numLanes="3" shape="305245.44,5701180.98,0.00 305227.34,5701136.22,0.00" speed="36.11" />
	<edge id="902218555_8380258196_8380253350" from="8380258196" to="8380253350" numLanes="3" shape="305262.32,5701175.96,0.00 305305.15,5701282.88,0.00 305324.67,5701329.58,0.00 305335.29,5701354.81,0.00" speed="36.11" />
	<edge id="30065532_17088373_17088374" from="17088373" to="17088374" numLanes="2" shape="305047.72,5700917.37,0.00 305053.23,5700900.43,0.00 305058.91,5700878.15,0.00 305061.60,5700865.23,0.00 305063.67,5700848.65,0.00 305064.97,5700828.80,0.00 305064.60,5700800.63,0.00 305062.00,5700774.88,0.00 305053.20,5700737.01,0.00 305047.87,5700719.80,0.00 305043.02,5700706.40,0.00 305046.84,5700689.29,0.00" speed="19.44" />
	<edge id="279491430_1359819220_2837178475" from="1359819220" to="2837178475" numLanes="4" shape="305545.37,5701061.43,0.00 305731.04,5701000.96,0.00" speed="36.11" />
	<edge id="4263100_1007657751_2837178478" from="1007657751" to="2837178478" numLanes="2" shape="305773.61,5701003.66,0.00 305742.14,5701024.29,0.00 305712.81,5701036.46,0.00 305684.47,5701051.76,0.00 305654.46,5701071.60,0.00 305620.51,5701098.28,0.00 305606.00,5701112.87,0.00" speed="19.44" />
	<edge id="318488937_3248957127_1007657751" from="3248957127" to="1007657751" numLanes="5" shape="306203.82,5700871.72,0.00 306005.40,5700930.81,0.00 305885.98,5700967.27,0.00 305773.61,5701003.66,0.00" speed="36.11" />
	<edge id="279491432_2837178483_1367859990" from="2837178483" to="1367859990" numLanes="3" shape="305428.03,5701668.74,0.00 305400.75,5701601.83,0.00 305370.87,5701527.40,0.00" speed="19.44" />
	<edge id="902218876_8380253348_8380253349" from="8380253348" to="8380253349" numLanes="1" shape="305348.86,5701351.83,0.00 305353.52,5701363.35,0.00" speed="27.78" />
	<edge id="902218553_8380258194_1368171015" from="8380258194" to="1368171015" numLanes="2" shape="305277.34,5701171.19,0.00 305316.64,5701272.58,0.00" speed="27.78" />
	<edge id="902218882_8380253355_8380253354" from="8380253355" to="8380253354" numLanes="1" shape="305306.88,5701372.30,0.00 305301.83,5701360.06,0.00" speed="22.22" />
	<edge id="902218872_8380253344_8380253345" from="8380253344" to="8380253345" numLanes="3" shape="305150.38,5700897.64,0.00 305154.97,5700908.90,0.00" speed="36.11" />
	<edge id="279491433_411133732_1359819288" from="411133732" to="1359819288" numLanes="5" shape="304116.10,5701482.70,0.00 304200.62,5701457.41,0.00 304304.46,5701426.29,0.00 304459.83,5701381.49,0.00" speed="36.11" />
	<edge id="901928577_8377920153_8377920152" from="8377920153" to="8377920152" numLanes="4" shape="304816.97,5700074.45,0.00 304819.45,5700080.60,0.00" speed="36.11" />
	<edge id="18833295_1367859990_2837178481" from="1367859990" to="2837178481" numLanes="2" shape="305370.87,5701527.40,0.00 305360.25,5701516.26,0.00 305356.04,5701507.36,0.00 305343.98,5701485.97,0.00 305330.21,5701467.65,0.00 305317.40,5701453.27,0.00 305293.66,5701433.04,0.00 305265.66,5701415.40,0.00 305095.32,5701333.34,0.00" speed="19.44" />
	<edge id="279491428_2837178475_17084347" from="2837178475" to="17084347" numLanes="3" shape="305731.04,5701000.96,0.00 305901.81,5700946.03,0.00" speed="36.11" />
	<edge id="4263104_25581558_411133641" from="25581558" to="411133641" numLanes="3" shape="305014.97,5701221.21,0.00 305049.28,5701211.01,0.00" speed="36.11" />
	<edge id="30065228_194574604_2837178486" from="194574604" to="2837178486" numLanes="4" shape="305526.40,5701828.41,0.00 305587.64,5701982.31,0.00" speed="36.11" />
	<edge id="4263102_1007657751_1007657747" from="1007657751" to="1007657747" numLanes="3" shape="305773.61,5701003.66,0.00 305758.97,5701008.33,0.00 305739.84,5701014.42,0.00" speed="36.11" />
	<edge id="279491439_2837178480_8377943872" from="2837178480" to="8377943872" numLanes="3" shape="304632.84,5701348.64,0.00 304604.15,5701356.59,0.00" speed="36.11" />
	<edge id="318496449_3249029061_8380302820" from="3249029061" to="8380302820" numLanes="3" shape="301852.39,5702373.33,0.00 301905.92,5702333.45,0.00 301982.52,5702278.02,0.00 302067.72,5702220.41,0.00 302159.10,5702163.53,0.00 302253.53,5702109.79,0.00 302349.03,5702059.64,0.00 302445.46,5702013.48,0.00 302549.74,5701968.27,0.00 302600.21,5701948.23,0.00 302661.99,5701924.98,0.00 302832.65,5701867.48,0.00 302918.40,5701841.83,0.00 303309.41,5701724.58,0.00" speed="36.11" />
	<edge id="18832709_17088367_194574597" from="17088367" to="194574597" numLanes="1" shape="305507.59,5701244.40,0.00 305490.81,5701280.63,0.00 305464.43,5701323.84,0.00 305447.67,5701358.11,0.00 305438.45,5701384.32,0.00 305433.10,5701405.39,0.00 305428.48,5701431.95,0.00 305426.27,5701455.88,0.00 305426.02,5701476.99,0.00 305428.03,5701507.81,0.00 305435.63,5701566.28,0.00" speed="19.44" />
</edges>
