<?xml version="1.0" ?>
<!-- Generated by MOSAIC scenario-convert 21.0 -->
<routes>
	<vType id="default" length="7.5" maxSpeed="50" minGap="2.0" carFollowModel="Krauss" accel="0.80" decel="4.5" sigma="0.5" tau="1"/>
	<route id="1" edges="35111185_411905006_2837178469 279491442_2837178469_8377920153 901928577_8377920153_8377920152 901928576_8377920152_2837178470 279491443_2837178470_509105 769047475_509105_7178942637 4068262_7178942637_8380253344 902218872_8380253344_8380253345 902218871_8380253345_8380258197 902218556_8380258197_8380258196 902218555_8380258196_8380253350 902218878_8380253350_8380253351 902218877_8380253351_7178942635 769047473_7178942635_194574604 30065228_194574604_2837178486" />
	<route id="2" edges="284327671_1368060765_2837178485 279491446_2837178485_7178942634 769047472_7178942634_194584922 769047471_194584922_7178942633 122417842_7178942633_510081 902218880_510081_8380253352 902218879_8380253352_8380253353 902218558_8380253353_8380258199 902218557_8380258199_8380258198 4100106_8380258198_8380253347 902218870_8380253347_8380253346 902218869_8380253346_7178942636 769047474_7178942636_17088374 4068272_17088374_2837178471 279491441_2837178471_510085 901928579_510085_8377920150 901928578_8377920150_8377920151 279491445_8377920151_2837178468 279491453_2837178468_411905007" />
	<route id="3" edges="30065531_8377943869_25581558 4263104_25581558_411133641 35051883_411133641_25581559 35051884_25581559_25581560 4263105_25581560_1359819220 279491430_1359819220_2837178475 279491428_2837178475_17084347 4068276_17084347_1007657719 86638468_1007657719_1007657722 86638469_1007657722_1007657712" />
	<route id="4" edges="318488937_3248957127_1007657751 4263102_1007657751_1007657747 133849553_1007657747_25581553 4263103_25581553_3248957134 318488909_3248957134_25581554 35051881_25581554_411133739 318488919_411133739_1359819186 318488914_1359819186_411133638 35051882_411133638_25581555 4403090_25581555_1359819245 279491429_1359819245_2837178480 279491439_2837178480_8377943872 901937039_8377943872_8377943871 901937038_8377943871_3616184417 902223495_3616184417_8380302817 902223494_8380302817_8380302818 356116659_8380302818_1916729978" />
</routes>