<?xml version="1.0" ?>
<!-- Generated by MOSAIC scenario-convert 21.0 -->
<routes>
	<vType id="default" length="7.5" maxSpeed="50" minGap="2.0" carFollowModel="Krauss" accel="0.80" decel="4.5" sigma="0.5" tau="1"/>
	<route id="1" edges="4515845_5784633190_26736196 4515845_26736196_26708460 152698992_26708460_263702166 152698992_263702166_4932289023 152698992_4932289023_26736187 31621012_26736187_263703306 31621012_263703306_6450818477 688053568_6450818477_26736188 32909782_26736188_3900580935 32909782_3900580935_26736200 32909782_26736200_5784619545 32909782_5784619545_5784621456 32909782_5784621456_26704526 32909782_26704526_4782446441 32909782_4782446441_1254415600 109612317_1254415600_26704482 109612319_26704482_1223838352 320896579_1223838352_26938219 320896579_26938219_667945032 52578337_667945032_26785753 25185001_26785753_26704584 25185007_26704584_26938209 25185007_26938209_21487146 25185006_21487146_21487168 627460044_21487168_3804695404 627460044_3804695404_4911322403 4068038_4911322403_272256206 4068038_272256206_1335664904 36337928_1335664904_26704448" />
	<route id="2" edges="4609241_27537747_1837751357 4609241_1837751357_26704447 335462905_26704447_1992100022 192158399_1992100022_408194196 36337926_408194196_415838099 36337926_415838099_1363248023 320896582_1363248023_3275571361 627460043_3275571361_3791061796 627460043_3791061796_5313824950 320896581_5313824950_21487145 25185003_21487145_21487148 25185005_21487148_26938214 25185005_26938214_21487144 4403977_21487144_26704628 25184999_26704628_251106770 139880220_251106770_26938212 139880220_26938212_21487143 25185008_21487143_21487142 4400423_21487142_251150123 4400423_251150123_667945033 52578336_667945033_4782446442 52578336_4782446442_628156652 109612316_628156652_628156655 109612315_628156655_5784621463 109612315_5784621463_26875020 109612315_26875020_5784621455 109612315_5784621455_312778949 371175286_312778949_3900580941 371175286_3900580941_4598380609 371175286_4598380609_17777145 32909783_17777145_102918588 32909783_102918588_26736168 31621011_26736168_4932289021 31621011_4932289021_17777144 31621011_17777144_5784633192 31621011_5784633192_26662395 31621011_26662395_26736197 31621010_26736197_7040454060" />
	<route id="3" edges="157658302_26704580_6211151203 157658302_6211151203_20246274 4377785_20246274_1560866121 4377785_1560866121_324753730 4377785_324753730_400912982 4377785_400912982_4489578382 4377785_4489578382_6211151202 4377785_6211151202_26704048 32909215_26704048_654381313 230611052_654381313_21487146 25185006_21487146_21487168 25185004_21487168_26938217 25185004_26938217_21487145 25185003_21487145_21487148 25185005_21487148_26938214 25185005_26938214_21487144 4403977_21487144_26704628 25184999_26704628_251106770 4403986_251106770_26938227 4403986_26938227_654381302 52578335_654381302_1321325636 133743711_1321325636_1757441427 259176004_1757441427_26727582 259176003_26727582_4277479605 259176003_4277479605_26727583 259176003_26727583_267620336 102698235_267620336_3066874440 302429276_3066874440_26727584 302429346_26727584_614419921" />
	<route id="4" edges="302429299_26938195_26938193 302429299_26938193_3066874439 302429272_3066874439_4277479606 302429272_4277479606_267620337 302429272_267620337_26938192 302429264_26938192_26938196 302429264_26938196_26938199 259213623_26938199_26938226 259213623_26938226_654381305 52578339_654381305_21487143 25185008_21487143_21487142 25185002_21487142_251106773 25185002_251106773_26785753 25185001_26785753_26704584 4400368_26704584_3791061780 4400368_3791061780_654381284 230611051_654381284_26938207 860374114_26938207_26704031 860374114_26704031_4504087203 32909214_4504087203_4489578383 32909214_4489578383_292298701 32909214_292298701_364334123 32909214_364334123_292298705 32909214_292298705_6257217699 32909214_6257217699_26760192 142629241_26760192_690262560 718867440_690262560_5654153738" />
	<route id="5" edges="26969521_341364250_1980757232 231887171_1980757232_26704485 231887171_26704485_1749584808 163209067_1749584808_1749584807 163209068_1749584807_26704049 163196852_26704049_292298702 142629261_292298702_1702876860 161756393_1702876860_26704042 142629258_26704042_1737184228 161756392_1737184228_1737184227 161756394_1737184227_26704043 142629263_26704043_718487900 142629263_718487900_292298705 32909214_292298705_6257217699 32909214_6257217699_26760192 142629241_26760192_690262560" />
	<route id="6" edges="302429299_26938195_26938193 302429299_26938193_3066874439 302429272_3066874439_4277479606 302429272_4277479606_267620337 302429272_267620337_26938192 302429264_26938192_26938196 302429264_26938196_26938199 259213623_26938199_26938226 259213623_26938226_654381305 52578339_654381305_21487143 25185008_21487143_21487142 25185002_21487142_251106773 25185002_251106773_26785753 25185001_26785753_26704584 4400368_26704584_3791061780 4400368_3791061780_654381284 230611051_654381284_26938207 860374114_26938207_26704031 860374114_26704031_4504087203 32909214_4504087203_4489578383 32909214_4489578383_292298701 32909214_292298701_364334123 32909214_364334123_292298705 32909214_292298705_6257217699 32909214_6257217699_26760192 142629241_26760192_690262560 718867440_690262560_5654153738 718867440_5654153738_1560866095" />
	<route id="7" edges="100541440_5964778576_27409693 100541440_27409693_364309968 160343967_364309968_26938187 160343967_26938187_1723927599 320896580_1723927599_26938178 320896580_26938178_654381390 52578338_654381390_21487144 4403977_21487144_26704628 25184999_26704628_251106770 139880220_251106770_26938212 139880220_26938212_21487143 25185008_21487143_21487142 4400423_21487142_251150123 4400423_251150123_667945033 52578336_667945033_4782446442 52578336_4782446442_628156652 109612316_628156652_628156655 109612315_628156655_5784621463 109612315_5784621463_26875020 109612315_26875020_5784621455 109612315_5784621455_312778949 371175286_312778949_3900580941 371175286_3900580941_4598380609 371175286_4598380609_17777145 32909783_17777145_102918588 32909783_102918588_26736168 31621011_26736168_4932289021 31621011_4932289021_17777144 31621011_17777144_5784633192 31621011_5784633192_26662395 31621011_26662395_26736197 31621010_26736197_7040454060" />
	<route id="8" edges="302416095_3066762534_5845546373 302416095_5845546373_26704521 112442381_26704521_1277967231 37036260_1277967231_26704522 37036260_26704522_6221665682 37036260_6221665682_26704525 37036260_26704525_6221665681 37036260_6221665681_26704524 747453201_26704524_1321335395 4490162_1321335395_4853814386 610848010_4853814386_5784619546 610848010_5784619546_26704526 4515849_26704526_26875020 428660082_26875020_5784621460 610848017_5784621460_4277479604 24619223_4277479604_26938191 4402675_26938191_26938190 4402675_26938190_26938192 4571069_26938192_26727583 4402674_26727583_267620340 531179970_267620340_1972845722 24619225_1972845722_27409694" />
	<route id="9" edges="24619225_1972845722_27409694 24619225_27409694_1972845722 531179970_1972845722_267620340 24619224_267620340_5156519028 24619224_5156519028_267620336 24619226_267620336_267620337 24619227_267620337_26938191 24619223_26938191_4277479604 610848017_4277479604_5784621460 610848023_5784621460_5784619547 610848023_5784619547_5784621455 610848005_5784621455_5784621456 610847999_5784621456_4853814386 4490162_4853814386_1321335395 747453201_1321335395_26704524 37036260_26704524_6221665681 37036260_6221665681_26704525 37036260_26704525_6221665682 37036260_6221665682_26704522 37036260_26704522_1277967231 148670266_1277967231_5845546372 148670266_5845546372_1277967230 148670266_1277967230_1277967223 112442380_1277967223_1277967229 112442376_1277967229_370624774 32909626_370624774_1277963434" />
	<route id="10" edges="4581933_6146156296_27409148 4581933_27409148_6146156296 4581933_6146156296_26784919 459346122_26784919_5784633191 459346122_5784633191_26736197 31621007_26736197_26736196 4515845_26736196_26708460 152698992_26708460_263702166 152698992_263702166_4932289023 152698992_4932289023_26736187 31621012_26736187_263703306 31621012_263703306_6450818477 688053568_6450818477_26736188 32909782_26736188_3900580935 32909782_3900580935_26736200 32909782_26736200_5784619545 32909782_5784619545_5784621456 610847999_5784621456_4853814386 4490162_4853814386_1321335395 747453201_1321335395_26704524 37036260_26704524_6221665681 37036260_6221665681_26704525 37036260_26704525_6221665682 37036260_6221665682_26704522 37036260_26704522_1277967231 148670266_1277967231_5845546372 148670266_5845546372_1277967230 148670266_1277967230_1277967223 823947547_1277967223_26869178 823947546_26869178_26869179 823947546_26869179_7692836676 327462541_7692836676_5845549225 327462541_5845549225_26869180 32909622_26869180_5845551786 32909622_5845551786_26869181 823947544_26869181_5845556686 823947544_5845556686_26763008 168903526_26763008_1756041738 163937936_1756041738_26704055 163937934_26704055_1404734006 163937935_1404734006_2778536888 4381160_2778536888_26704056 4410982_26704056_341364254 4410982_341364254_5496911289 4410982_5496911289_26704058 4410982_26704058_5496911289 4410982_5496911289_341364254 4410982_341364254_26704056" />
</routes>