<edges>
	<edge id="109612320_4782446443_26938196" from="4782446443" to="26938196" numLanes="1" shape="385788.75,5819376.32,0.00 385785.80,5819408.96,0.00 385782.39,5819446.75,0.00 385781.86,5819452.61,0.00 385797.08,5819487.16,0.00 385797.47,5819488.06,0.00 385816.39,5819531.11,0.00" speed="8.33" />
	<edge id="4515853_26784919_26784918" from="26784919" to="26784918" numLanes="1" shape="384714.52,5819504.99,0.00 384725.11,5819504.83,0.00" speed="13.89" />
	<edge id="4400368_26704584_3791061780" from="26704584" to="3791061780" numLanes="3" shape="386088.86,5819315.48,0.00 386100.99,5819309.74,0.00 386107.03,5819306.83,0.00 386115.43,5819302.98,0.00 386120.62,5819300.13,0.00 386124.66,5819297.19,0.00 386129.02,5819293.54,0.00 386135.21,5819288.04,0.00" speed="13.89" />
	<edge id="4381160_26704057_4404288496" from="26704057" to="4404288496" numLanes="2" shape="386175.94,5818542.08,0.00 386177.99,5818565.59,0.00 386179.70,5818580.62,0.00 386181.44,5818595.95,0.00" speed="8.33" />
	<edge id="163209067_1749584808_1749584807" from="1749584808" to="1749584807" numLanes="1" shape="386008.49,5818968.86,0.00 386033.56,5818966.31,0.00" speed="8.33" />
	<edge id="4381554_26704450_368020746" from="26704450" to="368020746" numLanes="1" shape="386748.58,5819319.25,0.00 386749.74,5819313.85,0.00 386749.59,5819310.38,0.00 386748.70,5819306.48,0.00 386737.55,5819282.23,0.00 386702.18,5819205.49,0.00 386698.35,5819197.59,0.00 386683.47,5819166.23,0.00 386667.22,5819130.93,0.00 386658.77,5819112.54,0.00 386652.35,5819098.59,0.00 386649.00,5819091.56,0.00" speed="13.89" />
	<edge id="25369033_4361531348_26736170" from="4361531348" to="26736170" numLanes="1" shape="384844.41,5818623.68,0.00 384835.50,5818621.84,0.00 384826.62,5818619.92,0.00" speed="8.33" />
	<edge id="823947542_7692836675_5845560525" from="7692836675" to="5845560525" numLanes="2" shape="386300.96,5818596.26,0.00 386321.87,5818593.92,0.00 386342.32,5818591.64,0.00" speed="13.89" />
	<edge id="24619224_5156519028_267620336" from="5156519028" to="267620336" numLanes="2" shape="385681.65,5819638.50,0.00 385677.14,5819632.16,0.00 385673.35,5819627.28,0.00" speed="13.89" />
	<edge id="23352698_27537749_5194290241" from="27537749" to="5194290241" numLanes="1" shape="386783.75,5819425.34,0.00 386782.56,5819441.31,0.00" speed="13.89" />
	<edge id="4515845_5784633190_26736196" from="5784633190" to="26736196" numLanes="4" shape="384715.25,5819247.59,0.00 384720.61,5819248.04,0.00 384733.83,5819249.14,0.00" speed="13.89" />
	<edge id="610847999_5784621456_4853814386" from="5784621456" to="4853814386" numLanes="2" shape="385631.49,5819326.82,0.00 385629.88,5819313.39,0.00 385629.64,5819298.85,0.00 385632.49,5819291.49,0.00" speed="13.89" />
	<edge id="109612315_628156655_5784621463" from="628156655" to="5784621463" numLanes="4" shape="385790.36,5819358.60,0.00 385735.41,5819353.92,0.00 385715.08,5819352.11,0.00 385711.76,5819351.81,0.00 385705.93,5819351.32,0.00 385662.20,5819347.63,0.00 385657.95,5819347.31,0.00" speed="13.89" />
	<edge id="403736227_26784937_26784942" from="26784937" to="26784942" numLanes="1" shape="384821.92,5819881.06,0.00 384824.61,5819840.24,0.00 384826.71,5819809.84,0.00 384834.50,5819730.66,0.00" speed="8.33" />
	<edge id="98996700_26736189_1145332282" from="26736189" to="1145332282" numLanes="1" shape="385160.26,5819124.92,0.00 385150.35,5819215.94,0.00 385146.96,5819247.68,0.00" speed="8.33" />
	<edge id="480240233_102918593_6221678516" from="102918593" to="6221678516" numLanes="1" shape="385122.08,5819499.15,0.00 385135.93,5819499.45,0.00 385140.05,5819499.54,0.00" speed="8.33" />
	<edge id="24912337_900995715_4382361814" from="900995715" to="4382361814" numLanes="4" shape="386778.99,5818597.69,0.00 386765.84,5818572.98,0.00" speed="8.33" />
	<edge id="4410427_26682519_26736168" from="26682519" to="26736168" numLanes="2" shape="385109.26,5819498.84,0.00 385110.35,5819487.36,0.00 385112.94,5819477.21,0.00 385122.34,5819456.00,0.00 385127.91,5819440.57,0.00 385131.21,5819428.71,0.00 385133.28,5819418.07,0.00 385133.66,5819415.73,0.00 385141.91,5819304.61,0.00" speed="13.89" />
	<edge id="610848023_5784621460_5784619547" from="5784621460" to="5784619547" numLanes="1" shape="385641.87,5819384.10,0.00 385637.48,5819375.32,0.00 385636.00,5819364.26,0.00" speed="13.89" />
	<edge id="823947541_5845560517_4489578385" from="5845560517" to="4489578385" numLanes="2" shape="386533.96,5818569.38,0.00 386598.14,5818562.58,0.00 386605.02,5818561.81,0.00 386616.64,5818560.49,0.00" speed="13.89" />
	<edge id="4515626_26736143_7115947089" from="26736143" to="7115947089" numLanes="1" shape="384630.53,5819096.33,0.00 384706.60,5819098.08,0.00" speed="8.33" />
	<edge id="109612320_628156655_4782446443" from="628156655" to="4782446443" numLanes="1" shape="385790.36,5819358.60,0.00 385788.75,5819376.32,0.00" speed="8.33" />
	<edge id="231887171_1980757232_26704485" from="1980757232" to="26704485" numLanes="1" shape="385845.96,5818973.98,0.00 385877.28,5818974.24,0.00 385944.67,5818974.80,0.00 385955.44,5818974.92,0.00 385965.32,5818974.98,0.00 385982.46,5818971.88,0.00" speed="8.33" />
	<edge id="302416095_3066762534_5845546373" from="3066762534" to="5845546373" numLanes="3" shape="385628.50,5818686.96,0.00 385620.01,5818687.90,0.00 385594.49,5818690.74,0.00 385582.06,5818692.13,0.00" speed="8.33" />
	<edge id="163209068_1749584807_26704049" from="1749584807" to="26704049" numLanes="1" shape="386033.56,5818966.31,0.00 386163.70,5818952.19,0.00 386177.38,5818950.33,0.00" speed="8.33" />
	<edge id="109612320_26938196_4782446443" from="26938196" to="4782446443" numLanes="1" shape="385816.39,5819531.11,0.00 385797.47,5819488.06,0.00 385797.08,5819487.16,0.00 385781.86,5819452.61,0.00 385782.39,5819446.75,0.00 385785.80,5819408.96,0.00 385788.75,5819376.32,0.00" speed="8.33" />
	<edge id="168903523_26735757_4404288503" from="26735757" to="4404288503" numLanes="1" shape="385973.03,5818560.19,0.00 385980.13,5818618.77,0.00" speed="8.33" />
	<edge id="30127237_27409724_27409693" from="27409724" to="27409693" numLanes="1" shape="386079.98,5819834.73,0.00 386129.87,5819806.48,0.00 386186.13,5819775.54,0.00 386189.54,5819773.67,0.00 386234.80,5819748.78,0.00 386242.11,5819744.55,0.00" speed="8.33" />
	<edge id="192158399_1992100022_408194196" from="1992100022" to="408194196" numLanes="4" shape="386676.26,5819432.15,0.00 386668.29,5819431.48,0.00" speed="13.89" />
	<edge id="823947563_7692857985_26704545" from="7692857985" to="26704545" numLanes="1" shape="385750.97,5818673.48,0.00 385694.88,5818680.50,0.00" speed="8.33" />
	<edge id="4377785_400912982_4489578382" from="400912982" to="4489578382" numLanes="3" shape="386383.66,5819006.72,0.00 386375.50,5819016.78,0.00" speed="13.89" />
	<edge id="627460043_3791061796_5313824950" from="3791061796" to="5313824950" numLanes="3" shape="386224.17,5819393.84,0.00 386219.26,5819393.82,0.00 386215.59,5819393.92,0.00" speed="13.89" />
	<edge id="163209069_26704053_3886445946" from="26704053" to="3886445946" numLanes="1" shape="386109.97,5818685.89,0.00 386106.59,5818696.51,0.00 386103.79,5818707.01,0.00 386094.08,5818728.04,0.00 386063.71,5818793.73,0.00 386059.23,5818803.43,0.00" speed="8.33" />
	<edge id="57128181_26977832_60644033" from="26977832" to="60644033" numLanes="1" shape="386729.28,5819522.96,0.00 386754.40,5819498.41,0.00 386759.65,5819493.39,0.00 386772.62,5819481.57,0.00 386773.75,5819480.20,0.00 386775.64,5819477.91,0.00 386779.73,5819471.89,0.00" speed="13.89" />
	<edge id="191543844_2021286625_6344195322" from="2021286625" to="6344195322" numLanes="1" shape="385094.38,5818616.61,0.00 385094.93,5818613.13,0.00" speed="8.33" />
	<edge id="4490375_6146127551_26736137" from="6146127551" to="26736137" numLanes="1" shape="384746.70,5818892.28,0.00 384722.23,5818893.45,0.00 384704.75,5818894.05,0.00 384650.70,5818895.91,0.00" speed="8.33" />
	<edge id="152699780_27409751_27409746" from="27409751" to="27409746" numLanes="1" shape="385877.55,5819736.72,0.00 385978.25,5819683.70,0.00 385989.34,5819677.92,0.00 385994.24,5819675.37,0.00" speed="8.33" />
	<edge id="4436884_26736183_20246277" from="26736183" to="20246277" numLanes="1" shape="385103.63,5818556.91,0.00 385090.22,5818553.12,0.00 384899.61,5818453.23,0.00 384893.87,5818450.23,0.00" speed="8.33" />
	<edge id="152698992_263702166_4932289023" from="263702166" to="4932289023" numLanes="4" shape="384846.24,5819259.62,0.00 384961.07,5819270.58,0.00 384970.72,5819271.50,0.00" speed="13.89" />
	<edge id="823947550_20246276_7692836677" from="20246276" to="7692836677" numLanes="1" shape="384785.79,5818752.10,0.00 384797.66,5818751.85,0.00 384821.92,5818751.33,0.00 384828.56,5818751.19,0.00" speed="8.33" />
	<edge id="32909625_7737382874_26704548" from="7737382874" to="26704548" numLanes="1" shape="385682.23,5818563.50,0.00 385676.53,5818515.73,0.00 385675.19,5818504.42,0.00 385670.28,5818466.60,0.00" speed="8.33" />
	<edge id="28658324_5917954596_26736203" from="5917954596" to="26736203" numLanes="2" shape="384808.33,5818631.77,0.00 384809.64,5818628.10,0.00 384813.77,5818616.43,0.00" speed="13.89" />
	<edge id="4400423_21487142_251150123" from="21487142" to="251150123" numLanes="3" shape="386047.10,5819393.07,0.00 386040.89,5819387.74,0.00 386034.17,5819382.11,0.00 386030.52,5819379.86,0.00" speed="13.89" />
	<edge id="327462541_7692836676_5845549225" from="7692836676" to="5845549225" numLanes="2" shape="385741.27,5818659.17,0.00 385780.66,5818654.51,0.00 385784.64,5818654.17,0.00 385790.39,5818653.49,0.00" speed="8.33" />
	<edge id="27093182_26704483_341364246" from="26704483" to="341364246" numLanes="1" shape="385870.67,5819198.17,0.00 385754.17,5819187.75,0.00" speed="8.33" />
	<edge id="4471286_26736188_2129678384" from="26736188" to="2129678384" numLanes="1" shape="385266.07,5819296.03,0.00 385265.20,5819283.26,0.00" speed="8.33" />
	<edge id="160346478_3791061803_26704448" from="3791061803" to="26704448" numLanes="2" shape="386694.66,5819399.78,0.00 386693.03,5819403.73,0.00 386690.50,5819409.72,0.00 386688.43,5819417.71,0.00" speed="13.89" />
	<edge id="68339346_26704571_26704570" from="26704571" to="26704570" numLanes="1" shape="385943.73,5818304.04,0.00 385957.61,5818421.29,0.00 385958.69,5818430.38,0.00" speed="8.33" />
	<edge id="160346478_4573411515_3791061803" from="4573411515" to="3791061803" numLanes="2" shape="386717.92,5819347.69,0.00 386711.32,5819356.98,0.00 386710.83,5819357.60,0.00 386694.66,5819399.78,0.00" speed="13.89" />
	<edge id="823947541_20246275_5845560517" from="20246275" to="5845560517" numLanes="2" shape="386505.13,5818572.17,0.00 386518.45,5818571.03,0.00 386533.96,5818569.38,0.00" speed="13.89" />
	<edge id="610848017_4277479604_5784621460" from="4277479604" to="5784621460" numLanes="1" shape="385656.27,5819547.07,0.00 385654.22,5819523.82,0.00 385653.82,5819519.29,0.00 385650.59,5819482.43,0.00 385644.27,5819411.14,0.00 385641.87,5819384.10,0.00" speed="13.89" />
	<edge id="4515705_26736173_26736201" from="26736173" to="26736201" numLanes="1" shape="385250.23,5818716.96,0.00 385251.31,5818728.88,0.00" speed="13.89" />
	<edge id="823947569_3951898354_5845560524" from="3951898354" to="5845560524" numLanes="1" shape="386364.52,5818603.43,0.00 386354.11,5818604.76,0.00 386344.16,5818605.85,0.00" speed="13.89" />
	<edge id="25185002_21487142_251106773" from="21487142" to="251106773" numLanes="4" shape="386047.10,5819393.07,0.00 386046.18,5819385.00,0.00 386045.64,5819378.82,0.00 386045.99,5819372.75,0.00 386046.54,5819367.88,0.00" speed="13.89" />
	<edge id="112427848_26704548_26704519" from="26704548" to="26704519" numLanes="1" shape="385670.28,5818466.60,0.00 385552.32,5818481.41,0.00 385542.16,5818480.53,0.00" speed="8.33" />
	<edge id="4410427_26784926_26784925" from="26784926" to="26784925" numLanes="2" shape="385090.16,5819859.49,0.00 385096.49,5819747.60,0.00" speed="13.89" />
	<edge id="4495204_26784924_26784945" from="26784924" to="26784945" numLanes="1" shape="384850.20,5819499.10,0.00 384847.97,5819530.19,0.00 384846.25,5819554.77,0.00 384845.06,5819571.96,0.00 384841.54,5819623.27,0.00 384840.73,5819635.03,0.00" speed="8.33" />
	<edge id="24619223_4277479604_26938191" from="4277479604" to="26938191" numLanes="1" shape="385656.27,5819547.07,0.00 385658.10,5819568.98,0.00 385658.69,5819576.02,0.00" speed="13.89" />
	<edge id="24619225_26875021_27409694" from="26875021" to="27409694" numLanes="1" shape="385850.19,5819967.17,0.00 385836.26,5819939.92,0.00 385835.51,5819938.44,0.00 385834.11,5819935.70,0.00 385781.20,5819832.17,0.00 385762.47,5819795.53,0.00" speed="13.89" />
	<edge id="30137421_332095915_6344195323" from="332095915" to="6344195323" numLanes="1" shape="385030.98,5818634.03,0.00 385042.64,5818634.23,0.00 385054.26,5818633.72,0.00 385073.47,5818631.99,0.00" speed="8.33" />
	<edge id="4402675_26938191_26938190" from="26938191" to="26938190" numLanes="2" shape="385658.69,5819576.02,0.00 385661.15,5819579.21,0.00 385663.46,5819581.94,0.00 385666.76,5819593.51,0.00" speed="13.89" />
	<edge id="744198418_26736127_26736160" from="26736127" to="26736160" numLanes="3" shape="384769.81,5818768.73,0.00 384772.03,5818752.77,0.00" speed="13.89" />
	<edge id="688053568_6450818477_26736188" from="6450818477" to="26736188" numLanes="4" shape="385159.99,5819287.28,0.00 385248.62,5819294.62,0.00 385266.07,5819296.03,0.00" speed="13.89" />
	<edge id="31621014_102918593_26682519" from="102918593" to="26682519" numLanes="1" shape="385122.08,5819499.15,0.00 385109.26,5819498.84,0.00" speed="13.89" />
	<edge id="112427848_26704548_26704503" from="26704548" to="26704503" numLanes="1" shape="385670.28,5818466.60,0.00 385785.19,5818452.53,0.00" speed="8.33" />
	<edge id="32909215_26704048_654381313" from="26704048" to="654381313" numLanes="4" shape="386161.97,5819290.68,0.00 386160.18,5819295.13,0.00 386159.12,5819299.69,0.00" speed="13.89" />
	<edge id="28658323_26736201_6965000731" from="26736201" to="6965000731" numLanes="1" shape="385251.31,5818728.88,0.00 385238.73,5818730.35,0.00 385182.73,5818736.85,0.00 385160.93,5818739.27,0.00 385092.46,5818747.04,0.00 385088.10,5818747.52,0.00" speed="8.33" />
	<edge id="259213623_26938226_654381305" from="26938226" to="654381305" numLanes="3" shape="386052.98,5819444.29,0.00 386055.36,5819440.38,0.00 386057.66,5819436.61,0.00" speed="13.89" />
	<edge id="305422037_3100460451_26704503" from="3100460451" to="26704503" numLanes="1" shape="385795.85,5818547.35,0.00 385793.84,5818530.60,0.00 385792.23,5818516.08,0.00 385790.69,5818502.17,0.00 385789.38,5818490.37,0.00 385788.66,5818483.86,0.00 385785.19,5818452.53,0.00" speed="8.33" />
	<edge id="152833230_1656102229_654381393" from="1656102229" to="654381393" numLanes="2" shape="386168.04,5819448.36,0.00 386168.48,5819450.99,0.00" speed="13.89" />
	<edge id="68339346_822836829_26704570" from="822836829" to="26704570" numLanes="1" shape="385969.67,5818529.23,0.00 385958.69,5818430.38,0.00" speed="8.33" />
	<edge id="110008909_197386305_4404286888" from="197386305" to="4404286888" numLanes="1" shape="386327.47,5818286.64,0.00 386332.44,5818314.84,0.00 386349.29,5818463.42,0.00 386351.48,5818483.23,0.00 386351.69,5818486.89,0.00 386353.54,5818502.31,0.00 386356.59,5818530.09,0.00 386361.37,5818574.92,0.00" speed="13.89" />
	<edge id="454003207_5496911273_26704059" from="5496911273" to="26704059" numLanes="2" shape="386476.51,5818321.19,0.00 386476.13,5818318.00,0.00 386474.74,5818306.37,0.00" speed="8.33" />
	<edge id="4495307_4932289024_26736178" from="4932289024" to="26736178" numLanes="1" shape="384992.62,5819254.34,0.00 385016.21,5819109.31,0.00" speed="8.33" />
	<edge id="302429264_26938192_26938196" from="26938192" to="26938196" numLanes="2" shape="385672.63,5819608.83,0.00 385680.40,5819604.67,0.00 385749.49,5819567.64,0.00 385816.39,5819531.11,0.00" speed="13.89" />
	<edge id="4515847_27409541_26938195" from="27409541" to="26938195" numLanes="2" shape="385284.94,5819504.19,0.00 385305.50,5819650.62,0.00 385312.75,5819697.85,0.00 385316.72,5819705.04,0.00 385359.41,5819782.53,0.00" speed="8.33" />
	<edge id="4531799_26704545_26704523" from="26704545" to="26704523" numLanes="1" shape="385694.88,5818680.50,0.00 385709.59,5818810.29,0.00 385713.07,5818840.88,0.00" speed="8.33" />
	<edge id="25369037_6146198024_5917954595" from="6146198024" to="5917954595" numLanes="1" shape="384631.89,5818558.07,0.00 384671.46,5818571.00,0.00 384769.35,5818602.39,0.00 384784.63,5818607.29,0.00 384799.97,5818612.10,0.00" speed="8.33" />
	<edge id="32909782_3900580935_26736200" from="3900580935" to="26736200" numLanes="4" shape="385426.58,5819310.24,0.00 385458.56,5819312.22,0.00 385494.68,5819315.73,0.00" speed="13.89" />
	<edge id="109612315_5784621463_26875020" from="5784621463" to="26875020" numLanes="4" shape="385657.95,5819347.31,0.00 385652.66,5819346.91,0.00 385642.05,5819345.93,0.00" speed="13.89" />
	<edge id="87687993_17777145_4598380591" from="17777145" to="4598380591" numLanes="1" shape="385267.34,5819314.75,0.00 385268.26,5819328.27,0.00" speed="8.33" />
	<edge id="823947564_26704546_7692857986" from="26704546" to="7692857986" numLanes="1" shape="385983.65,5818647.19,0.00 385973.41,5818648.48,0.00 385877.53,5818659.33,0.00" speed="8.33" />
	<edge id="168890013_26682519_6221678517" from="26682519" to="6221678517" numLanes="1" shape="385109.26,5819498.84,0.00 385096.58,5819498.32,0.00 385093.40,5819498.20,0.00" speed="8.33" />
	<edge id="4490376_26736175_26736157" from="26736175" to="26736157" numLanes="1" shape="384760.35,5818892.37,0.00 384772.47,5818892.02,0.00" speed="13.89" />
	<edge id="32909214_6257217699_26760192" from="6257217699" to="26760192" numLanes="2" shape="386525.94,5818872.33,0.00 386528.93,5818869.96,0.00 386539.96,5818861.27,0.00" speed="13.89" />
	<edge id="25369040_26736170_26736203" from="26736170" to="26736203" numLanes="1" shape="384826.62,5818619.92,0.00 384813.77,5818616.43,0.00" speed="13.89" />
	<edge id="4490375_6146127551_26736175" from="6146127551" to="26736175" numLanes="1" shape="384746.70,5818892.28,0.00 384750.55,5818892.30,0.00 384760.35,5818892.37,0.00" speed="8.33" />
	<edge id="163209069_3886445946_26704053" from="3886445946" to="26704053" numLanes="1" shape="386059.23,5818803.43,0.00 386063.71,5818793.73,0.00 386094.08,5818728.04,0.00 386103.79,5818707.01,0.00 386106.59,5818696.51,0.00 386109.97,5818685.89,0.00" speed="8.33" />
	<edge id="4495307_4932289024_26736187" from="4932289024" to="26736187" numLanes="1" shape="384992.62,5819254.34,0.00 384991.99,5819258.23,0.00 384989.54,5819273.30,0.00" speed="8.33" />
	<edge id="25418282_2784054037_261568630" from="2784054037" to="261568630" numLanes="1" shape="386713.14,5819044.82,0.00 386721.69,5819039.86,0.00" speed="13.89" />
	<edge id="31621013_4932289022_27409001" from="4932289022" to="27409001" numLanes="1" shape="384986.71,5819310.40,0.00 384983.01,5819372.75,0.00 384982.49,5819383.54,0.00 384980.95,5819408.73,0.00 384978.88,5819442.38,0.00" speed="8.33" />
	<edge id="821100848_26736189_26736178" from="26736189" to="26736178" numLanes="1" shape="385160.26,5819124.92,0.00 385096.46,5819118.03,0.00 385080.11,5819116.20,0.00 385077.31,5819115.89,0.00 385069.68,5819115.30,0.00 385024.42,5819110.04,0.00 385016.21,5819109.31,0.00" speed="8.33" />
	<edge id="32909782_26704526_4782446441" from="26704526" to="4782446441" numLanes="4" shape="385640.38,5819327.59,0.00 385650.68,5819328.48,0.00 385662.17,5819329.27,0.00 385713.54,5819332.10,0.00 385743.31,5819334.37,0.00 385794.19,5819337.86,0.00" speed="13.89" />
	<edge id="459346125_26784939_26784943" from="26784939" to="26784943" numLanes="1" shape="384954.78,5819931.31,0.00 384958.42,5819850.47,0.00 384960.88,5819802.82,0.00 384964.28,5819738.79,0.00" speed="8.33" />
	<edge id="24912365_26762962_26704067" from="26762962" to="26704067" numLanes="3" shape="386828.73,5818647.30,0.00 386814.18,5818658.48,0.00" speed="13.89" />
	<edge id="4436885_5845538954_26736173" from="5845538954" to="26736173" numLanes="1" shape="385243.68,5818702.82,0.00 385245.54,5818706.83,0.00 385250.23,5818716.96,0.00" speed="8.33" />
	<edge id="4490171_370624773_26869179" from="370624773" to="26869179" numLanes="1" shape="385684.44,5818582.01,0.00 385685.66,5818593.77,0.00 385693.09,5818664.86,0.00" speed="8.33" />
	<edge id="163937935_1404734006_2778536888" from="1404734006" to="2778536888" numLanes="2" shape="386096.71,5818548.19,0.00 386122.71,5818544.87,0.00" speed="8.33" />
	<edge id="27093182_341364246_26704524" from="341364246" to="26704524" numLanes="1" shape="385754.17,5819187.75,0.00 385710.98,5819184.25,0.00 385636.41,5819178.21,0.00 385619.00,5819173.24,0.00" speed="8.33" />
	<edge id="4515705_26736201_26736173" from="26736201" to="26736173" numLanes="1" shape="385251.31,5818728.88,0.00 385250.23,5818716.96,0.00" speed="13.89" />
	<edge id="823947562_1277967230_7692836684" from="1277967230" to="7692836684" numLanes="2" shape="385558.30,5818695.02,0.00 385548.13,5818696.26,0.00 385498.59,5818701.80,0.00" speed="8.33" />
	<edge id="4495307_26736178_4932289024" from="26736178" to="4932289024" numLanes="1" shape="385016.21,5819109.31,0.00 384992.62,5819254.34,0.00" speed="8.33" />
	<edge id="305422037_5182106096_5182106094" from="5182106096" to="5182106094" numLanes="1" shape="385771.61,5818337.75,0.00 385770.01,5818324.20,0.00 385768.59,5818311.38,0.00" speed="8.33" />
	<edge id="161756393_1702876860_26704042" from="1702876860" to="26704042" numLanes="2" shape="386356.08,5818918.96,0.00 386358.67,5818916.90,0.00 386363.98,5818912.55,0.00" speed="8.33" />
	<edge id="148670266_1277967230_1277967223" from="1277967230" to="1277967223" numLanes="3" shape="385558.30,5818695.02,0.00 385556.35,5818680.16,0.00" speed="13.89" />
	<edge id="305422036_822836829_3100460453" from="822836829" to="3100460453" numLanes="1" shape="385969.67,5818529.23,0.00 385971.56,5818547.18,0.00 385972.59,5818556.33,0.00" speed="8.33" />
	<edge id="38587211_26704494_26704523" from="26704494" to="26704523" numLanes="1" shape="385828.55,5818827.29,0.00 385820.12,5818828.14,0.00 385713.07,5818840.88,0.00" speed="8.33" />
	<edge id="87687993_27409541_4598380591" from="27409541" to="4598380591" numLanes="1" shape="385284.94,5819504.19,0.00 385283.43,5819429.77,0.00 385280.19,5819408.10,0.00 385278.77,5819398.63,0.00 385268.26,5819328.27,0.00" speed="8.33" />
	<edge id="4490163_263703831_6146127554" from="263703831" to="6146127554" numLanes="1" shape="385018.52,5818880.53,0.00 384897.70,5818885.19,0.00 384851.97,5818887.49,0.00 384786.19,5818891.22,0.00" speed="8.33" />
	<edge id="32909782_4782446441_1254415600" from="4782446441" to="1254415600" numLanes="4" shape="385794.19,5819337.86,0.00 385796.33,5819338.01,0.00" speed="13.89" />
	<edge id="515089686_3935677406_698703714" from="3935677406" to="698703714" numLanes="3" shape="386770.71,5818695.06,0.00 386760.61,5818703.28,0.00 386754.13,5818708.55,0.00 386745.34,5818715.52,0.00" speed="8.33" />
	<edge id="4391568_26760192_6257217698" from="26760192" to="6257217698" numLanes="2" shape="386539.96,5818861.27,0.00 386538.20,5818847.15,0.00 386537.80,5818843.95,0.00" speed="8.33" />
	<edge id="168903522_1840963728_4404288513" from="1840963728" to="4404288513" numLanes="1" shape="386001.82,5818807.85,0.00 385985.05,5818659.59,0.00" speed="8.33" />
	<edge id="480240233_6221678516_102918593" from="6221678516" to="102918593" numLanes="1" shape="385140.05,5819499.54,0.00 385135.93,5819499.45,0.00 385122.08,5819499.15,0.00" speed="8.33" />
	<edge id="4495204_26784945_26784924" from="26784945" to="26784924" numLanes="1" shape="384840.73,5819635.03,0.00 384841.54,5819623.27,0.00 384845.06,5819571.96,0.00 384846.25,5819554.77,0.00 384847.97,5819530.19,0.00 384850.20,5819499.10,0.00" speed="8.33" />
	<edge id="109612320_4782446443_628156655" from="4782446443" to="628156655" numLanes="1" shape="385788.75,5819376.32,0.00 385790.36,5819358.60,0.00" speed="8.33" />
	<edge id="761621801_7115947089_7115947095" from="7115947089" to="7115947095" numLanes="1" shape="384706.60,5819098.08,0.00 384706.68,5819087.99,0.00 384707.02,5819085.80,0.00 384708.49,5819082.49,0.00 384710.53,5819079.00,0.00 384713.81,5819077.64,0.00 384716.83,5819077.60,0.00" speed="8.33" />
	<edge id="165034514_1417401017_60644033" from="1417401017" to="60644033" numLanes="1" shape="386781.11,5819464.16,0.00 386780.86,5819466.68,0.00 386779.73,5819471.89,0.00" speed="13.89" />
	<edge id="459346122_26784919_5784633191" from="26784919" to="5784633191" numLanes="2" shape="384714.52,5819504.99,0.00 384715.41,5819492.90,0.00 384730.54,5819286.83,0.00" speed="8.33" />
	<edge id="25369040_26736203_26736170" from="26736203" to="26736170" numLanes="1" shape="384813.77,5818616.43,0.00 384826.62,5818619.92,0.00" speed="13.89" />
	<edge id="145933306_6965000722_2627186932" from="6965000722" to="2627186932" numLanes="1" shape="385131.48,5818383.73,0.00 385134.05,5818369.03,0.00 385137.79,5818343.54,0.00 385140.14,5818330.14,0.00 385140.97,5818325.19,0.00 385141.45,5818320.92,0.00 385146.80,5818283.54,0.00 385147.62,5818272.51,0.00 385146.91,5818262.06,0.00 385139.41,5818225.53,0.00 385127.38,5818170.17,0.00 385120.21,5818150.23,0.00 385115.52,5818137.18,0.00 385109.40,5818127.24,0.00" speed="8.33" />
	<edge id="165034514_1417401017_5194290241" from="1417401017" to="5194290241" numLanes="1" shape="386781.11,5819464.16,0.00 386781.31,5819460.03,0.00 386781.93,5819450.81,0.00 386782.56,5819441.31,0.00" speed="13.89" />
	<edge id="25369037_26731273_6146198024" from="26731273" to="6146198024" numLanes="1" shape="384613.13,5818551.93,0.00 384623.56,5818555.34,0.00 384631.89,5818558.07,0.00" speed="8.33" />
	<edge id="724621035_26736196_6146138102" from="26736196" to="6146138102" numLanes="2" shape="384733.83,5819249.14,0.00 384734.94,5819236.65,0.00 384736.34,5819218.26,0.00 384744.11,5819115.25,0.00" speed="8.33" />
	<edge id="24619223_26938191_4277479604" from="26938191" to="4277479604" numLanes="1" shape="385658.69,5819576.02,0.00 385658.10,5819568.98,0.00 385656.27,5819547.07,0.00" speed="13.89" />
	<edge id="25184342_268050708_1316823342" from="268050708" to="1316823342" numLanes="1" shape="386680.15,5819474.74,0.00 386674.88,5819484.96,0.00 386668.34,5819493.91,0.00 386659.25,5819503.87,0.00 386608.53,5819536.48,0.00 386580.90,5819555.34,0.00 386556.31,5819575.61,0.00 386554.06,5819577.81,0.00 386537.54,5819594.09,0.00 386521.09,5819613.40,0.00 386511.19,5819628.28,0.00 386485.38,5819673.06,0.00 386471.69,5819695.04,0.00 386462.46,5819708.90,0.00 386459.42,5819713.52,0.00 386434.06,5819748.29,0.00 386431.74,5819751.47,0.00 386422.44,5819764.29,0.00 386420.25,5819766.83,0.00 386415.50,5819772.35,0.00 386403.80,5819783.71,0.00 386382.14,5819804.76,0.00 386352.82,5819825.88,0.00 386323.03,5819844.57,0.00 386317.36,5819847.93,0.00" speed="13.89" />
	<edge id="4495205_26784920_26784942" from="26784920" to="26784942" numLanes="1" shape="384707.49,5819721.35,0.00 384834.50,5819730.66,0.00" speed="8.33" />
	<edge id="315474030_2784054037_26704452" from="2784054037" to="26704452" numLanes="2" shape="386713.14,5819044.82,0.00 386708.08,5819048.05,0.00 386661.22,5819073.71,0.00 386652.80,5819078.31,0.00 386651.24,5819079.11,0.00 386644.54,5819082.57,0.00" speed="13.89" />
	<edge id="734284921_26763067_26704061" from="26763067" to="26704061" numLanes="2" shape="386757.27,5818555.17,0.00 386754.01,5818544.46,0.00" speed="13.89" />
	<edge id="610848023_5784619547_5784621455" from="5784619547" to="5784621455" numLanes="1" shape="385636.00,5819364.26,0.00 385635.39,5819359.28,0.00 385633.70,5819345.16,0.00" speed="13.89" />
	<edge id="4490375_26736137_6146127551" from="26736137" to="6146127551" numLanes="1" shape="384650.70,5818895.91,0.00 384704.75,5818894.05,0.00 384722.23,5818893.45,0.00 384746.70,5818892.28,0.00" speed="8.33" />
	<edge id="48371933_26727584_27409601" from="26727584" to="27409601" numLanes="1" shape="385562.62,5819688.29,0.00 385565.70,5819693.54,0.00 385590.00,5819739.92,0.00 385601.13,5819759.59,0.00 385601.96,5819768.15,0.00 385602.35,5819772.22,0.00 385599.75,5819781.01,0.00 385599.64,5819781.30,0.00 385594.95,5819794.26,0.00 385589.23,5819810.09,0.00 385582.14,5819829.67,0.00 385577.11,5819843.59,0.00 385571.70,5819859.10,0.00 385555.31,5819903.84,0.00 385545.03,5819932.22,0.00" speed="8.33" />
	<edge id="823947543_1339061963_20246275" from="1339061963" to="20246275" numLanes="2" shape="386491.52,5818573.67,0.00 386495.27,5818573.20,0.00 386505.13,5818572.17,0.00" speed="13.89" />
	<edge id="747453201_1321335395_26704524" from="1321335395" to="26704524" numLanes="1" shape="385623.14,5819206.90,0.00 385619.00,5819173.24,0.00" speed="13.89" />
	<edge id="168890013_6221678517_26784922" from="6221678517" to="26784922" numLanes="1" shape="385093.40,5819498.20,0.00 385010.69,5819494.85,0.00 384976.87,5819493.49,0.00" speed="8.33" />
	<edge id="168903528_26704492_26869180" from="26704492" to="26869180" numLanes="1" shape="385810.34,5818666.93,0.00 385808.73,5818651.58,0.00" speed="13.89" />
	<edge id="4381166_26704494_1980757232" from="26704494" to="1980757232" numLanes="1" shape="385828.55,5818827.29,0.00 385829.80,5818837.80,0.00 385845.96,5818973.98,0.00" speed="8.33" />
	<edge id="461905066_4573411515_26704450" from="4573411515" to="26704450" numLanes="1" shape="386717.92,5819347.69,0.00 386723.03,5819342.00,0.00 386744.35,5819324.45,0.00 386746.48,5819322.30,0.00 386748.58,5819319.25,0.00" speed="13.89" />
	<edge id="32909624_370624772_3100460451" from="370624772" to="3100460451" numLanes="1" shape="385799.08,5818574.19,0.00 385798.19,5818567.28,0.00 385795.85,5818547.35,0.00" speed="8.33" />
	<edge id="96837219_5845560514_26763072" from="5845560514" to="26763072" numLanes="1" shape="386524.28,5818582.78,0.00 386520.12,5818583.30,0.00 386506.36,5818585.03,0.00" speed="13.89" />
	<edge id="4515849_26704526_26875020" from="26704526" to="26875020" numLanes="2" shape="385640.38,5819327.59,0.00 385642.05,5819345.93,0.00" speed="13.89" />