<?xml version="1.0" encoding="UTF-8"?>

<!-- generated on 2021-07-09 20:09:02 by Eclipse SUMO netconvert Version 1.9.2
<configuration xmlns:xsi="http://www.w3.org/2001/XMLSchema-instance" xsi:noNamespaceSchemaLocation="http://sumo.dlr.de/xsd/netconvertConfiguration.xsd">

    <input>
        <node-files value="/home/parallels/Development/mosaic-nes/tools/scenario-generator/examples/scenarios/barcelona/application/barcelona.nod.xml"/>
        <edge-files value="/home/parallels/Development/mosaic-nes/tools/scenario-generator/examples/scenarios/barcelona/application/barcelona.edg.xml"/>
        <connection-files value="/home/parallels/Development/mosaic-nes/tools/scenario-generator/examples/scenarios/barcelona/application/barcelona.con.xml"/>
    </input>

    <output>
        <output-file value="/home/parallels/Development/mosaic-nes/tools/scenario-generator/examples/scenarios/barcelona/application/barcelona.net.xml"/>
    </output>

    <report>
        <aggregate-warnings value="5"/>
    </report>

</configuration>
-->

<net version="1.9" junctionCornerDetail="5" limitTurnSpeed="5.50" xmlns:xsi="http://www.w3.org/2001/XMLSchema-instance" xsi:noNamespaceSchemaLocation="http://sumo.dlr.de/xsd/net_file.xsd">

    <location netOffset="-427450.08,-4582011.43" convBoundary="0.00,0.00,1885.91,1535.49" origBoundary="427450.08,4582011.43,429335.99,4583546.92" projParameter="!"/>

    <edge id=":1174647432_0" function="internal">
        <lane id=":1174647432_0_0" index="0" speed="7.24" length="8.88" shape="658.71,1113.54 657.15,1115.78 656.37,1117.88 656.35,1119.83 657.11,1121.65"/>
        <lane id=":1174647432_0_1" index="1" speed="8.33" length="12.99" shape="656.26,1111.49 654.11,1114.65 653.10,1117.69 653.20,1120.60 654.43,1123.40"/>
    </edge>
    <edge id=":1174647432_2" function="internal">
        <lane id=":1174647432_2_0" index="0" speed="8.33" length="12.51" shape="650.11,1111.22 657.11,1121.65"/>
        <lane id=":1174647432_2_1" index="1" speed="8.33" length="12.51" shape="647.48,1113.05 654.43,1123.40"/>
    </edge>
    <edge id=":1297744704_0" function="internal">
        <lane id=":1297744704_0_0" index="0" speed="8.33" length="12.54" shape="1025.99,456.93 1022.92,454.40 1020.06,452.73 1017.40,451.91 1014.93,451.96"/>
        <lane id=":1297744704_0_1" index="1" speed="8.33" length="14.43" shape="1025.99,456.93 1021.81,453.19 1018.47,450.60 1015.97,449.14 1014.30,448.82"/>
    </edge>
    <edge id=":1297744704_2" function="internal">
        <lane id=":1297744704_2_0" index="0" speed="3.66" length="4.72" shape="1025.99,456.93 1025.85,455.48 1026.22,454.66 1027.10,454.46 1028.49,454.89"/>
    </edge>
    <edge id=":1297744704_3" function="internal">
        <lane id=":1297744704_3_0" index="0" speed="5.55" length="9.22" shape="1030.41,448.76 1027.69,449.68 1026.46,451.01 1026.73,452.74 1028.49,454.89"/>
    </edge>
    <edge id=":1297744704_4" function="internal">
        <lane id=":1297744704_4_0" index="0" speed="8.33" length="15.77" shape="1030.41,448.76 1014.93,451.96"/>
        <lane id=":1297744704_4_1" index="1" speed="8.33" length="15.77" shape="1029.77,445.62 1014.30,448.82"/>
        <lane id=":1297744704_4_2" index="2" speed="8.33" length="15.77" shape="1029.12,442.49 1013.67,445.68"/>
        <lane id=":1297744704_4_3" index="3" speed="8.33" length="15.77" shape="1028.47,439.36 1013.04,442.54"/>
        <lane id=":1297744704_4_4" index="4" speed="8.33" length="15.77" shape="1027.83,436.22 1012.41,439.41"/>
    </edge>
    <edge id=":1311619340_0" function="internal">
        <lane id=":1311619340_0_0" index="0" speed="13.89" length="27.89" shape="1464.88,847.53 1438.29,839.00"/>
        <lane id=":1311619340_0_1" index="1" speed="13.89" length="27.89" shape="1465.83,844.47 1439.28,835.95"/>
        <lane id=":1311619340_0_2" index="2" speed="13.89" length="27.89" shape="1466.78,841.42 1440.27,832.91"/>
    </edge>
    <edge id=":1311619340_3" function="internal">
        <lane id=":1311619340_3_0" index="0" speed="13.89" length="27.74" shape="1443.25,823.78 1469.62,832.25"/>
        <lane id=":1311619340_3_1" index="1" speed="13.89" length="27.74" shape="1442.25,826.83 1468.67,835.30"/>
        <lane id=":1311619340_3_2" index="2" speed="13.89" length="27.74" shape="1441.26,829.87 1467.72,838.36"/>
    </edge>
    <edge id=":1311619340_6" function="internal">
        <lane id=":1311619340_6_0" index="0" speed="5.10" length="6.86" shape="1442.69,842.94 1443.08,841.97 1442.48,840.99 1440.88,840.00 1438.29,839.00"/>
    </edge>
    <edge id=":1311619340_7" function="internal">
        <lane id=":1311619340_7_0" index="0" speed="13.89" length="26.47" shape="1442.69,842.94 1447.74,836.74 1450.84,832.10 1454.33,827.92 1460.55,823.11"/>
        <lane id=":1311619340_7_1" index="1" speed="13.89" length="26.47" shape="1445.03,845.12 1450.01,839.02 1453.05,834.44 1456.49,830.32 1462.61,825.59"/>
        <lane id=":1311619340_7_2" index="2" speed="13.89" length="26.47" shape="1447.37,847.30 1452.27,841.29 1455.27,836.78 1458.65,832.72 1464.68,828.06"/>
    </edge>
    <edge id=":1311619340_10" function="internal">
        <lane id=":1311619340_10_0" index="0" speed="12.93" length="25.46" shape="1447.37,847.30 1453.73,841.13 1459.41,837.08 1464.38,835.14 1468.67,835.30"/>
        <lane id=":1311619340_10_1" index="1" speed="12.41" length="23.39" shape="1447.37,847.30 1452.77,842.30 1457.96,839.15 1462.94,837.83 1467.72,838.36"/>
    </edge>
    <edge id=":1311619488_0" function="internal">
        <lane id=":1311619488_0_0" index="0" speed="3.65" length="4.67" shape="1886.41,974.86 1887.30,975.99 1887.43,976.88 1886.80,977.51 1885.41,977.90"/>
    </edge>
    <edge id=":1311619500_0" function="internal">
        <lane id=":1311619500_0_0" index="0" speed="13.89" length="30.08" shape="1333.25,804.73 1304.64,795.44"/>
        <lane id=":1311619500_0_1" index="1" speed="13.89" length="30.08" shape="1334.23,801.68 1305.63,792.40"/>
        <lane id=":1311619500_0_2" index="2" speed="13.89" length="30.08" shape="1335.22,798.64 1306.62,789.36"/>
    </edge>
    <edge id=":1311619500_3" function="internal">
        <lane id=":1311619500_3_0" index="0" speed="5.00" length="6.89" shape="1333.58,785.74 1333.17,786.60 1333.80,787.51 1335.47,788.48 1338.18,789.51"/>
    </edge>
    <edge id=":1311619500_4" function="internal">
        <lane id=":1311619500_4_0" index="0" speed="13.89" length="27.51" shape="1333.58,785.74 1313.26,804.19"/>
        <lane id=":1311619500_4_1" index="1" speed="13.89" length="27.51" shape="1331.45,783.35 1311.08,801.84"/>
        <lane id=":1311619500_4_2" index="2" speed="13.89" length="27.51" shape="1329.33,780.96 1308.90,799.50"/>
    </edge>
    <edge id=":1311619500_7" function="internal">
        <lane id=":1311619500_7_0" index="0" speed="13.89" length="27.22" shape="1329.33,780.96 1321.95,786.94 1315.54,790.84 1310.10,792.66 1305.63,792.40"/>
        <lane id=":1311619500_7_1" index="1" speed="13.50" length="25.27" shape="1329.33,780.96 1323.04,785.82 1317.17,788.84 1311.69,790.02 1306.62,789.36"/>
    </edge>
    <edge id=":1311619500_9" function="internal">
        <lane id=":1311619500_9_0" index="0" speed="13.89" length="30.06" shape="1309.59,780.23 1338.18,789.51"/>
        <lane id=":1311619500_9_1" index="1" speed="13.89" length="30.06" shape="1308.60,783.27 1337.19,792.55"/>
        <lane id=":1311619500_9_2" index="2" speed="13.89" length="30.06" shape="1307.61,786.31 1336.20,795.60"/>
    </edge>
    <edge id=":1362899971_0" function="internal">
        <lane id=":1362899971_0_0" index="0" speed="13.89" length="30.90" shape="1617.69,897.20 1588.39,887.09"/>
        <lane id=":1362899971_0_1" index="1" speed="13.89" length="30.90" shape="1618.71,894.16 1589.50,884.09"/>
        <lane id=":1362899971_0_2" index="2" speed="13.89" length="30.90" shape="1619.73,891.13 1590.62,881.09"/>
    </edge>
    <edge id=":1362899971_3" function="internal">
        <lane id=":1362899971_3_0" index="0" speed="4.98" length="6.50" shape="1617.67,878.85 1617.58,879.48 1618.40,880.22 1620.14,881.07 1622.80,882.03"/>
    </edge>
    <edge id=":1362899971_4" function="internal">
        <lane id=":1362899971_4_0" index="0" speed="13.89" length="25.96" shape="1617.67,878.85 1599.76,897.63"/>
        <lane id=":1362899971_4_1" index="1" speed="13.89" length="25.96" shape="1615.36,876.64 1597.44,895.42"/>
        <lane id=":1362899971_4_2" index="2" speed="13.89" length="25.96" shape="1613.05,874.42 1595.13,893.21"/>
        <lane id=":1362899971_4_3" index="3" speed="13.89" length="25.96" shape="1610.73,872.21 1592.81,891.00"/>
    </edge>
    <edge id=":1362899971_8" function="internal">
        <lane id=":1362899971_8_0" index="0" speed="12.60" length="25.36" shape="1610.73,872.21 1604.19,878.43 1598.47,882.48 1593.57,884.36 1589.50,884.09"/>
        <lane id=":1362899971_8_1" index="1" speed="12.06" length="23.19" shape="1610.73,872.21 1605.16,877.29 1599.95,880.47 1595.10,881.73 1590.62,881.09"/>
    </edge>
    <edge id=":1362899971_10" function="internal">
        <lane id=":1362899971_10_0" index="0" speed="13.89" length="30.60" shape="1593.96,872.09 1622.80,882.03"/>
        <lane id=":1362899971_10_1" index="1" speed="13.89" length="30.60" shape="1592.85,875.09 1621.77,885.07"/>
        <lane id=":1362899971_10_2" index="2" speed="13.89" length="30.60" shape="1591.73,878.09 1620.75,888.10"/>
    </edge>
    <edge id=":1362900013_0" function="internal">
        <lane id=":1362900013_0_0" index="0" speed="13.89" length="23.55" shape="1130.47,739.13 1108.03,732.00"/>
        <lane id=":1362900013_0_1" index="1" speed="13.89" length="23.55" shape="1131.45,736.08 1109.00,728.95"/>
        <lane id=":1362900013_0_2" index="2" speed="13.89" length="23.55" shape="1132.42,733.03 1109.96,725.90"/>
    </edge>
    <edge id=":1362900013_3" function="internal">
        <lane id=":1362900013_3_0" index="0" speed="13.89" length="23.59" shape="1112.86,716.74 1135.35,723.89"/>
        <lane id=":1362900013_3_1" index="1" speed="13.89" length="23.59" shape="1111.89,719.80 1134.38,726.94"/>
        <lane id=":1362900013_3_2" index="2" speed="13.89" length="23.59" shape="1110.93,722.85 1133.40,729.99"/>
    </edge>
    <edge id=":1362900013_6" function="internal">
        <lane id=":1362900013_6_0" index="0" speed="5.21" length="7.16" shape="1112.02,736.40 1112.59,735.21 1112.12,734.08 1110.60,733.01 1108.03,732.00"/>
    </edge>
    <edge id=":1362900013_7" function="internal">
        <lane id=":1362900013_7_0" index="0" speed="8.33" length="27.84" shape="1112.02,736.40 1130.54,715.61"/>
        <lane id=":1362900013_7_1" index="1" speed="8.33" length="27.84" shape="1114.41,738.53 1132.93,717.74"/>
    </edge>
    <edge id=":1362900013_9" function="internal">
        <lane id=":1362900013_9_0" index="0" speed="11.11" length="24.11" shape="1114.41,738.53 1120.33,732.56 1125.63,728.64 1130.32,726.76 1134.38,726.94"/>
        <lane id=":1362900013_9_1" index="1" speed="11.11" length="21.99" shape="1114.41,738.53 1119.40,733.73 1124.23,730.70 1128.89,729.46 1133.40,729.99"/>
    </edge>
    <edge id=":1375272376_0" function="internal">
        <lane id=":1375272376_0_0" index="0" speed="13.89" length="10.65" shape="435.56,990.72 430.06,999.94"/>
        <lane id=":1375272376_0_1" index="1" speed="13.89" length="10.65" shape="432.76,989.17 427.34,998.25"/>
    </edge>
    <edge id=":1375272376_2" function="internal">
        <lane id=":1375272376_2_0" index="0" speed="6.66" length="8.81" shape="432.76,989.17 431.36,990.98 429.64,991.95 427.58,992.09 425.20,991.40"/>
    </edge>
    <edge id=":1378073778_0" function="internal">
        <lane id=":1378073778_0_0" index="0" speed="8.33" length="9.92" shape="770.56,526.70 768.71,528.92 766.84,530.00 765.10,531.14 763.66,533.54"/>
    </edge>
    <edge id=":1378073778_1" function="internal">
        <lane id=":1378073778_1_0" index="0" speed="8.33" length="7.94" shape="760.65,532.45 760.93,530.16 760.26,528.53 759.47,526.87 759.38,524.49"/>
        <lane id=":1378073778_1_1" index="1" speed="8.33" length="7.94" shape="760.65,532.45 761.39,530.33 761.82,528.84 762.12,527.33 762.52,525.11"/>
    </edge>
    <edge id=":1378894231_0" function="internal">
        <lane id=":1378894231_0_0" index="0" speed="8.33" length="12.65" shape="1128.59,710.62 1140.61,714.57"/>
    </edge>
    <edge id=":1378894231_1" function="internal">
        <lane id=":1378894231_1_0" index="0" speed="8.13" length="10.62" shape="1130.67,715.46 1132.47,714.09 1134.73,713.48 1137.44,713.64 1140.61,714.57"/>
    </edge>
    <edge id=":1382873523_0" function="internal">
        <lane id=":1382873523_0_0" index="0" speed="13.89" length="17.80" shape="897.13,264.77 893.75,247.26"/>
        <lane id=":1382873523_0_1" index="1" speed="13.89" length="17.80" shape="900.27,264.12 896.90,246.68"/>
    </edge>
    <edge id=":1382873523_2" function="internal">
        <lane id=":1382873523_2_0" index="0" speed="7.39" length="11.79" shape="900.27,264.12 899.84,260.31 900.33,257.40 901.73,255.40 904.04,254.32"/>
    </edge>
    <edge id=":1382873523_3" function="internal">
        <lane id=":1382873523_3_0" index="0" speed="8.03" length="14.73" shape="904.72,257.45 902.13,257.25 899.96,255.39 898.22,251.87 896.90,246.68"/>
    </edge>
    <edge id=":1382873523_4" function="internal">
        <lane id=":1382873523_4_0" index="0" speed="3.65" length="4.67" shape="904.72,257.45 903.38,256.92 902.82,256.22 903.04,255.35 904.04,254.32"/>
    </edge>
    <edge id=":1382873523_5" function="internal">
        <lane id=":1382873523_5_0" index="0" speed="5.80" length="12.61" shape="889.88,252.32 892.44,254.78 893.93,254.76 894.37,252.25 893.75,247.26"/>
        <lane id=":1382873523_5_1" index="1" speed="7.92" length="14.08" shape="889.96,256.84 893.60,255.67 895.97,253.59 897.07,250.59 896.90,246.68"/>
    </edge>
    <edge id=":1382873523_7" function="internal">
        <lane id=":1382873523_7_0" index="0" speed="11.11" length="14.31" shape="889.96,256.84 904.04,254.32"/>
    </edge>
    <edge id=":1382873535_0" function="internal">
        <lane id=":1382873535_0_0" index="0" speed="13.89" length="9.28" shape="938.85,244.14 940.51,253.15"/>
        <lane id=":1382873535_0_1" index="1" speed="13.89" length="9.28" shape="935.68,244.64 937.37,253.77"/>
        <lane id=":1382873535_0_2" index="2" speed="13.89" length="9.28" shape="932.52,245.14 934.23,254.38"/>
    </edge>
    <edge id=":1382873535_3" function="internal">
        <lane id=":1382873535_3_0" index="0" speed="6.43" length="7.99" shape="932.52,245.14 932.83,247.82 932.58,249.89 931.79,251.33 930.45,252.15"/>
    </edge>
    <edge id=":1382873535_4" function="internal">
        <lane id=":1382873535_4_0" index="0" speed="6.78" length="10.75" shape="929.48,249.11 932.43,248.61 934.73,249.22 936.38,250.94 937.37,253.77"/>
        <lane id=":1382873535_4_1" index="1" speed="5.97" length="8.09" shape="929.48,249.11 931.09,249.02 932.41,249.87 933.46,251.66 934.23,254.38"/>
    </edge>
    <edge id=":1382873535_6" function="internal">
        <lane id=":1382873535_6_0" index="0" speed="3.65" length="4.67" shape="929.48,249.11 930.87,249.50 931.49,250.14 931.35,251.03 930.45,252.15"/>
    </edge>
    <edge id=":1382873567_0" function="internal">
        <lane id=":1382873567_0_0" index="0" speed="6.39" length="9.04" shape="987.64,457.43 985.29,458.27 983.81,459.65 983.21,461.58 983.48,464.06"/>
    </edge>
    <edge id=":1382873567_1" function="internal">
        <lane id=":1382873567_1_0" index="0" speed="8.33" length="18.58" shape="987.64,457.43 969.31,461.05"/>
        <lane id=":1382873567_1_1" index="1" speed="8.33" length="18.58" shape="987.01,454.30 968.73,457.90"/>
        <lane id=":1382873567_1_2" index="2" speed="8.33" length="18.58" shape="986.38,451.16 968.15,454.75"/>
        <lane id=":1382873567_1_3" index="3" speed="8.33" length="18.58" shape="985.75,448.02 967.57,451.60"/>
        <lane id=":1382873567_1_4" index="4" speed="8.33" length="18.58" shape="985.13,444.88 967.00,448.46"/>
    </edge>
    <edge id=":1382873567_6" function="internal">
        <lane id=":1382873567_6_0" index="0" speed="13.89" length="24.35" shape="977.76,440.63 983.48,464.06"/>
        <lane id=":1382873567_6_1" index="1" speed="13.89" length="24.35" shape="974.61,441.20 980.38,464.85"/>
        <lane id=":1382873567_6_2" index="2" speed="13.89" length="24.35" shape="971.46,441.78 977.28,465.65"/>
    </edge>
    <edge id=":1382873567_9" function="internal">
        <lane id=":1382873567_9_0" index="0" speed="8.14" length="14.71" shape="971.46,441.78 972.08,447.08 971.73,451.00 970.42,453.56 968.15,454.75"/>
        <lane id=":1382873567_9_1" index="1" speed="7.37" length="11.86" shape="971.46,441.78 971.83,445.70 971.30,448.64 969.88,450.61 967.57,451.60"/>
        <lane id=":1382873567_9_2" index="2" speed="6.55" length="9.16" shape="971.46,441.78 971.57,444.32 970.87,446.28 969.34,447.66 967.00,448.46"/>
    </edge>
    <edge id=":1382873572_0" function="internal">
        <lane id=":1382873572_0_0" index="0" speed="6.50" length="9.03" shape="908.95,322.08 908.11,319.75 906.73,318.25 904.80,317.59 902.33,317.75"/>
        <lane id=":1382873572_0_1" index="1" speed="7.32" length="11.73" shape="908.95,322.08 907.83,318.38 906.24,315.90 904.19,314.65 901.67,314.62"/>
    </edge>
    <edge id=":1382873572_2" function="internal">
        <lane id=":1382873572_2_0" index="0" speed="13.89" length="14.40" shape="908.95,322.08 906.04,307.98"/>
        <lane id=":1382873572_2_1" index="1" speed="13.89" length="14.40" shape="912.09,321.43 909.17,307.34"/>
    </edge>
    <edge id=":1382873617_0" function="internal">
        <lane id=":1382873617_0_0" index="0" speed="5.64" length="9.27" shape="996.25,517.90 997.16,520.55 998.52,521.78 1000.35,521.58 1002.63,519.97"/>
        <lane id=":1382873617_0_1" index="1" speed="6.59" length="13.17" shape="996.25,517.90 997.57,522.07 999.44,524.20 1001.85,524.28 1004.81,522.32"/>
        <lane id=":1382873617_0_2" index="2" speed="7.42" length="17.12" shape="996.25,517.90 997.99,523.60 1000.35,526.62 1003.35,526.98 1006.98,524.67"/>
    </edge>
    <edge id=":1382873617_3" function="internal">
        <lane id=":1382873617_3_0" index="0" speed="13.89" length="24.54" shape="996.25,517.90 997.54,524.96 998.33,529.82 999.37,534.62 1001.43,541.47"/>
        <lane id=":1382873617_3_1" index="1" speed="13.89" length="24.54" shape="993.12,518.53 994.42,525.70 995.23,530.64 996.30,535.50 998.39,542.47"/>
        <lane id=":1382873617_3_2" index="2" speed="13.89" length="24.54" shape="989.98,519.17 991.31,526.45 992.13,531.46 993.22,536.39 995.35,543.46"/>
    </edge>
    <edge id=":1382873680_0" function="internal">
        <lane id=":1382873680_0_0" index="0" speed="5.61" length="9.31" shape="961.68,360.87 962.58,363.56 963.94,364.78 965.74,364.54 968.00,362.84"/>
        <lane id=":1382873680_0_1" index="1" speed="6.57" length="13.31" shape="961.68,360.87 963.00,365.11 964.86,367.23 967.28,367.23 970.24,365.13"/>
        <lane id=":1382873680_0_2" index="2" speed="7.41" length="17.35" shape="961.68,360.87 963.42,366.66 965.79,369.68 968.81,369.93 972.47,367.42"/>
    </edge>
    <edge id=":1382873680_3" function="internal">
        <lane id=":1382873680_3_0" index="0" speed="13.89" length="19.58" shape="961.68,360.87 965.43,380.05"/>
        <lane id=":1382873680_3_1" index="1" speed="13.89" length="19.58" shape="958.54,361.49 962.30,380.71"/>
        <lane id=":1382873680_3_2" index="2" speed="13.89" length="19.58" shape="955.40,362.11 959.16,381.37"/>
    </edge>
    <edge id=":1382873721_0" function="internal">
        <lane id=":1382873721_0_0" index="0" speed="13.89" length="0.37" shape="984.78,640.65 984.56,640.07"/>
        <lane id=":1382873721_0_1" index="1" speed="13.89" length="0.37" shape="987.73,639.41 987.60,639.06"/>
        <lane id=":1382873721_0_2" index="2" speed="13.89" length="0.37" shape="990.68,638.16 990.63,638.05"/>
    </edge>
    <edge id=":1469158191_0" function="internal">
        <lane id=":1469158191_0_0" index="0" speed="13.89" length="15.61" shape="963.21,684.12 960.07,681.23 957.86,679.23 955.41,677.69 951.49,676.16"/>
        <lane id=":1469158191_0_1" index="1" speed="13.89" length="15.61" shape="965.31,681.70 961.88,678.57 959.46,676.42 956.76,674.77 952.49,673.12"/>
        <lane id=":1469158191_0_2" index="2" speed="13.89" length="15.61" shape="967.40,679.28 963.68,675.91 961.05,673.61 958.12,671.86 953.50,670.08"/>
    </edge>
    <edge id=":1469158191_3" function="internal">
        <lane id=":1469158191_3_0" index="0" speed="13.89" length="18.19" shape="957.51,657.93 962.09,659.62 965.26,660.83 968.51,661.48 973.31,661.49"/>
        <lane id=":1469158191_3_1" index="1" speed="13.89" length="18.19" shape="956.51,660.97 961.42,662.77 964.84,664.03 968.34,664.69 973.49,664.68"/>
        <lane id=":1469158191_3_2" index="2" speed="13.89" length="18.19" shape="955.50,664.01 960.76,665.91 964.42,667.23 968.16,667.90 973.67,667.88"/>
        <lane id=":1469158191_3_3" index="3" speed="13.89" length="18.19" shape="954.50,667.05 960.09,669.06 963.99,670.43 967.98,671.11 973.85,671.07"/>
    </edge>
    <edge id=":1469158191_7" function="internal">
        <lane id=":1469158191_7_0" index="0" speed="3.65" length="2.34" shape="954.50,667.05 955.39,668.18 955.52,669.07"/>
    </edge>
    <edge id=":1469158191_8" function="internal">
        <lane id=":1469158191_8_0" index="0" speed="3.65" length="2.34" shape="955.52,669.07 954.89,669.70 953.50,670.08"/>
    </edge>
    <edge id=":1469158199_0" function="internal">
        <lane id=":1469158199_0_0" index="0" speed="12.27" length="1.92" shape="1032.89,639.82 1030.96,637.50"/>
        <lane id=":1469158199_0_1" index="1" speed="9.76" length="1.92" shape="1029.82,640.71 1028.43,639.45"/>
        <lane id=":1469158199_0_2" index="2" speed="13.89" length="1.92" shape="1026.74,641.59 1025.89,641.40"/>
    </edge>
    <edge id=":1469158212_0" function="internal">
        <lane id=":1469158212_0_0" index="0" speed="13.89" length="4.02" shape="1062.97,650.77 1060.55,653.70"/>
        <lane id=":1469158212_0_1" index="1" speed="13.89" length="4.02" shape="1065.43,652.83 1062.86,655.92"/>
        <lane id=":1469158212_0_2" index="2" speed="13.89" length="4.02" shape="1067.88,654.88 1065.17,658.13"/>
    </edge>
    <edge id=":1479390211_0" function="internal">
        <lane id=":1479390211_0_0" index="0" speed="6.49" length="9.07" shape="598.73,598.72 596.27,598.27 594.27,598.72 592.73,600.06 591.65,602.29"/>
    </edge>
    <edge id=":1479390211_1" function="internal">
        <lane id=":1479390211_1_0" index="0" speed="13.89" length="17.58" shape="598.73,598.72 582.04,593.16"/>
        <lane id=":1479390211_1_1" index="1" speed="13.89" length="17.58" shape="599.74,595.68 583.07,590.13"/>
    </edge>
    <edge id=":1479390211_3" function="internal">
        <lane id=":1479390211_3_0" index="0" speed="13.89" length="14.41" shape="596.19,588.59 591.65,602.29"/>
        <lane id=":1479390211_3_1" index="1" speed="13.89" length="14.41" shape="593.15,587.60 588.62,601.27"/>
        <lane id=":1479390211_3_2" index="2" speed="13.89" length="14.41" shape="590.11,586.60 585.58,600.25"/>
    </edge>
    <edge id=":1479390211_6" function="internal">
        <lane id=":1479390211_6_0" index="0" speed="6.48" length="9.00" shape="590.11,586.60 589.02,588.82 587.48,590.15 585.49,590.58 583.07,590.13"/>
    </edge>
    <edge id=":1479390232_0" function="internal">
        <lane id=":1479390232_0_0" index="0" speed="9.44" length="12.36" shape="810.41,667.14 807.96,666.85 805.31,667.48 802.47,669.04 799.43,671.52"/>
    </edge>
    <edge id=":1479390232_1" function="internal">
        <lane id=":1479390232_1_0" index="0" speed="13.89" length="15.41" shape="810.41,667.14 795.71,662.58"/>
        <lane id=":1479390232_1_1" index="1" speed="13.89" length="15.41" shape="811.39,664.09 796.65,659.52"/>
    </edge>
    <edge id=":1479390232_3" function="internal">
        <lane id=":1479390232_3_0" index="0" speed="5.67" length="9.24" shape="797.24,669.19 799.00,667.04 799.32,665.22 798.23,663.74 795.71,662.58"/>
    </edge>
    <edge id=":1479390232_4" function="internal">
        <lane id=":1479390232_4_0" index="0" speed="3.65" length="4.67" shape="797.24,669.19 798.66,668.95 799.50,669.26 799.76,670.12 799.43,671.52"/>
    </edge>
    <edge id=":1479390501_0" function="internal">
        <lane id=":1479390501_0_0" index="0" speed="8.33" length="0.12" shape="962.91,719.79 963.06,719.69"/>
        <lane id=":1479390501_0_1" index="1" speed="8.33" length="0.12" shape="964.72,722.42 964.77,722.39"/>
    </edge>
    <edge id=":1479390512_0" function="internal">
        <lane id=":1479390512_0_0" index="0" speed="10.53" length="10.39" shape="778.07,663.57 776.30,660.21 774.71,657.70 773.31,656.05 772.09,655.25"/>
        <lane id=":1479390512_0_1" index="1" speed="11.70" length="12.91" shape="780.94,662.16 778.83,658.24 776.81,655.27 774.90,653.26 773.09,652.21"/>
    </edge>
    <edge id=":1479390512_2" function="internal">
        <lane id=":1479390512_2_0" index="0" speed="13.89" length="12.15" shape="783.72,658.90 772.09,655.25"/>
        <lane id=":1479390512_2_1" index="1" speed="13.89" length="12.15" shape="784.65,655.84 773.09,652.21"/>
    </edge>
    <edge id=":1589583464_0" function="internal">
        <lane id=":1589583464_0_0" index="0" speed="7.82" length="4.78" shape="1362.88,374.95 1361.89,375.93 1361.37,376.75 1361.13,377.73 1360.95,379.13"/>
        <lane id=":1589583464_0_1" index="1" speed="9.44" length="7.13" shape="1360.76,372.56 1359.27,374.00 1358.46,375.22 1358.06,376.65 1357.77,378.74"/>
    </edge>
    <edge id=":1589583464_2" function="internal">
        <lane id=":1589583464_2_0" index="0" speed="11.11" length="5.22" shape="1358.64,370.16 1355.14,376.50"/>
        <lane id=":1589583464_2_1" index="1" speed="11.11" length="5.22" shape="1356.52,367.76 1354.43,373.38"/>
        <lane id=":1589583464_2_2" index="2" speed="9.63" length="5.22" shape="1356.52,367.76 1355.75,368.62 1355.29,369.32 1354.74,369.87 1353.73,370.26"/>
        <lane id=":1589583464_2_3" index="3" speed="9.57" length="5.22" shape="1356.52,367.76 1355.66,368.10 1354.92,367.74 1354.11,367.23 1353.02,367.14"/>
    </edge>
    <edge id=":1589583485_0" function="internal">
        <lane id=":1589583485_0_0" index="0" speed="13.89" length="0.31" shape="1365.76,386.51 1365.90,386.66"/>
        <lane id=":1589583485_0_1" index="1" speed="13.89" length="0.31" shape="1363.41,388.68 1363.60,388.88"/>
        <lane id=":1589583485_0_2" index="2" speed="13.89" length="0.31" shape="1361.06,390.85 1361.29,391.10"/>
        <lane id=":1589583485_0_3" index="3" speed="13.89" length="0.31" shape="1358.71,393.02 1358.99,393.32"/>
    </edge>
    <edge id=":1589583507_0" function="internal">
        <lane id=":1589583507_0_0" index="0" speed="13.89" length="0.17" shape="1159.61,549.87 1159.81,549.66"/>
        <lane id=":1589583507_0_1" index="1" speed="13.89" length="0.17" shape="1161.96,552.05 1162.08,551.93"/>
        <lane id=":1589583507_0_2" index="2" speed="13.89" length="0.17" shape="1164.30,554.23 1164.34,554.19"/>
    </edge>
    <edge id=":1589583514_0" function="internal">
        <lane id=":1589583514_0_0" index="0" speed="13.89" length="0.30" shape="1131.04,580.22 1131.24,580.02"/>
        <lane id=":1589583514_0_1" index="1" speed="13.89" length="0.30" shape="1133.35,582.44 1133.55,582.22"/>
        <lane id=":1589583514_0_2" index="2" speed="13.89" length="0.30" shape="1135.66,584.66 1135.87,584.43"/>
    </edge>
    <edge id=":1645362844_0" function="internal">
        <lane id=":1645362844_0_0" index="0" speed="8.33" length="14.62" shape="412.17,277.77 400.37,269.54"/>
        <lane id=":1645362844_0_1" index="1" speed="8.33" length="14.62" shape="414.18,275.28 402.00,266.78"/>
    </edge>
    <edge id=":1645362844_2" function="internal">
        <lane id=":1645362844_2_0" index="0" speed="6.55" length="9.14" shape="401.71,277.45 402.85,275.19 403.00,273.12 402.18,271.24 400.37,269.54"/>
        <lane id=":1645362844_2_1" index="1" speed="8.02" length="14.22" shape="404.53,278.99 406.20,275.59 406.34,272.41 404.94,269.48 402.00,266.78"/>
    </edge>
    <edge id=":1840720982_0" function="internal">
        <lane id=":1840720982_0_0" index="0" speed="12.95" length="16.05" shape="975.54,661.36 979.40,661.56 982.25,662.01 984.80,661.74 987.74,659.77"/>
        <lane id=":1840720982_0_1" index="1" speed="13.89" length="16.05" shape="975.76,664.56 980.26,664.69 983.56,665.02 986.50,664.51 989.92,662.11"/>
        <lane id=":1840720982_0_2" index="2" speed="13.89" length="16.05" shape="975.99,667.75 981.12,667.83 984.87,668.03 988.20,667.27 992.10,664.46"/>
        <lane id=":1840720982_0_3" index="3" speed="13.89" length="16.05" shape="976.21,670.94 981.99,670.96 986.18,671.04 989.90,670.04 994.28,666.80"/>
    </edge>
    <edge id=":1840720982_4" function="internal">
        <lane id=":1840720982_4_0" index="0" speed="13.89" length="15.45" shape="978.53,674.53 980.80,669.82 982.28,666.50 984.19,663.50 987.74,659.77"/>
        <lane id=":1840720982_4_1" index="1" speed="13.89" length="15.45" shape="981.35,676.03 983.47,671.60 984.84,668.46 986.60,665.63 989.92,662.11"/>
        <lane id=":1840720982_4_2" index="2" speed="13.89" length="15.45" shape="984.18,677.54 986.15,673.38 987.39,670.42 989.01,667.75 992.10,664.46"/>
        <lane id=":1840720982_4_3" index="3" speed="13.89" length="15.45" shape="987.00,679.04 988.82,675.16 989.94,672.38 991.42,669.87 994.28,666.80"/>
        <lane id=":1840720982_4_4" index="4" speed="13.89" length="15.45" shape="989.83,680.55 991.49,676.94 992.50,674.35 993.83,672.00 996.46,669.14"/>
    </edge>
    <edge id=":1840720990_0" function="internal">